* File: Coin_bank.pex.sp.pex
* Created: Sun Jan 14 15:06:01 2024
* Program "Calibre xRC"
* Version "v2021.3_35.19"
* Nominal Temperature: 27C
* Circuit Temperature: 27C
* 
.subckt PM_COIN_BANK%X19/X0/6 1 2
c0 1 0 0.041254f
r1 1 2 7.38
.ends

.subckt PM_COIN_BANK%X19/X1/6 1 2
c0 1 0 0.0170752f
r1 1 2 7.38
.ends

.subckt PM_COIN_BANK%X19/X2/6 1 2
r0 1 2 7.38
.ends

.subckt PM_COIN_BANK%X20/X0/6 1 2
c0 1 0 0.041254f
r1 1 2 7.38
.ends

.subckt PM_COIN_BANK%X20/X1/6 1 2
c0 1 0 0.0170752f
r1 1 2 7.38
.ends

.subckt PM_COIN_BANK%X20/X2/6 1 2
r0 1 2 7.38
.ends

.subckt PM_COIN_BANK%X21/X0/6 1 2
c0 1 0 0.041254f
r1 1 2 7.38
.ends

.subckt PM_COIN_BANK%X21/X1/6 1 2
c0 1 0 0.0170752f
r1 1 2 7.38
.ends

.subckt PM_COIN_BANK%X21/X2/6 1 2
r0 1 2 7.38
.ends

.subckt PM_COIN_BANK%X22/X0/6 1 2
c0 1 0 0.041254f
r1 1 2 7.38
.ends

.subckt PM_COIN_BANK%X22/X1/6 1 2
c0 1 0 0.0170752f
r1 1 2 7.38
.ends

.subckt PM_COIN_BANK%X22/X2/6 1 2
r0 1 2 7.38
.ends

.subckt PM_COIN_BANK%X23/X0/6 1 2
c0 1 0 0.041254f
r1 1 2 7.38
.ends

.subckt PM_COIN_BANK%X23/X1/6 1 2
c0 1 0 0.0170752f
r1 1 2 7.38
.ends

.subckt PM_COIN_BANK%X23/X2/6 1 2
r0 1 2 7.38
.ends

.subckt PM_COIN_BANK%X24/X0/6 1 2
c0 1 0 0.041254f
r1 1 2 7.38
.ends

.subckt PM_COIN_BANK%X24/X1/6 1 2
c0 1 0 0.0170752f
r1 1 2 7.38
.ends

.subckt PM_COIN_BANK%X24/X2/6 1 2
r0 1 2 7.38
.ends

.subckt PM_COIN_BANK%X25/X0/6 1 2
c0 1 0 0.041254f
r1 1 2 7.38
.ends

.subckt PM_COIN_BANK%X25/X1/6 1 2
c0 1 0 0.0170752f
r1 1 2 7.38
.ends

.subckt PM_COIN_BANK%X25/X2/6 1 2
r0 1 2 7.38
.ends

.subckt PM_COIN_BANK%X26/X0/6 1 2
c0 1 0 0.041254f
r1 1 2 7.38
.ends

.subckt PM_COIN_BANK%X26/X1/6 1 2
c0 1 0 0.0170752f
r1 1 2 7.38
.ends

.subckt PM_COIN_BANK%X26/X2/6 1 2
r0 1 2 7.38
.ends

.subckt PM_COIN_BANK%X17/X6/6 1 2
r0 1 2 7.38
.ends

.subckt PM_COIN_BANK%X17/X7/6 1 2
c0 1 0 0.0411036f
r1 1 2 7.38
.ends

.subckt PM_COIN_BANK%X17/X8/6 1 2
c0 1 0 0.0412127f
r1 1 2 7.38
.ends

.subckt PM_COIN_BANK%X17/X9/6 1 2
c0 1 0 0.022475f
r1 1 2 7.38
.ends

.subckt PM_COIN_BANK%X17/X10/6 1 2
c0 1 0 0.0414043f
r1 1 2 7.38
.ends

.subckt PM_COIN_BANK%X18/X6/6 1 2
r0 1 2 7.38
.ends

.subckt PM_COIN_BANK%X18/X7/6 1 2
c0 1 0 0.0411036f
r1 1 2 7.38
.ends

.subckt PM_COIN_BANK%X18/X8/6 1 2
c0 1 0 0.0412127f
r1 1 2 7.38
.ends

.subckt PM_COIN_BANK%X18/X9/6 1 2
c0 1 0 0.022475f
r1 1 2 7.38
.ends

.subckt PM_COIN_BANK%X18/X10/6 1 2
c0 1 0 0.0414043f
r1 1 2 7.38
.ends

.subckt PM_COIN_BANK%X27/X0/X6/6 1 2
r0 1 2 7.38
.ends

.subckt PM_COIN_BANK%X27/X0/X7/6 1 2
c0 1 0 0.0411036f
r1 1 2 7.38
.ends

.subckt PM_COIN_BANK%X27/X0/X8/6 1 2
c0 1 0 0.0412127f
r1 1 2 7.38
.ends

.subckt PM_COIN_BANK%X27/X0/X9/6 1 2
c0 1 0 0.022475f
r1 1 2 7.38
.ends

.subckt PM_COIN_BANK%X27/X0/X10/6 1 2
c0 1 0 0.0414043f
r1 1 2 7.38
.ends

.subckt PM_COIN_BANK%X27/X1/X6/6 1 2
c0 1 0 0.0313404f
r1 1 2 7.38
.ends

.subckt PM_COIN_BANK%X27/X1/X7/6 1 2
c0 1 0 0.0411036f
r1 1 2 7.38
.ends

.subckt PM_COIN_BANK%X27/X1/X8/6 1 2
c0 1 0 0.0412127f
r1 1 2 7.38
.ends

.subckt PM_COIN_BANK%X27/X1/X9/6 1 2
c0 1 0 0.022475f
r1 1 2 7.38
.ends

.subckt PM_COIN_BANK%X27/X1/X10/6 1 2
c0 1 0 0.0414043f
r1 1 2 7.38
.ends

.subckt PM_COIN_BANK%X27/X2/X6/6 1 2
c0 1 0 0.0315285f
r1 1 2 7.38
.ends

.subckt PM_COIN_BANK%X27/X2/X7/6 1 2
c0 1 0 0.0411036f
r1 1 2 7.38
.ends

.subckt PM_COIN_BANK%X27/X2/X8/6 1 2
c0 1 0 0.0412127f
r1 1 2 7.38
.ends

.subckt PM_COIN_BANK%X27/X2/X9/6 1 2
c0 1 0 0.022475f
r1 1 2 7.38
.ends

.subckt PM_COIN_BANK%X27/X2/X10/6 1 2
c0 1 0 0.0414043f
r1 1 2 7.38
.ends

.subckt PM_COIN_BANK%X27/X3/X6/6 1 2
r0 1 2 7.38
.ends

.subckt PM_COIN_BANK%X27/X3/X7/6 1 2
c0 1 0 0.0411036f
r1 1 2 7.38
.ends

.subckt PM_COIN_BANK%X27/X3/X8/6 1 2
c0 1 0 0.0412127f
r1 1 2 7.38
.ends

.subckt PM_COIN_BANK%X27/X3/X9/6 1 2
c0 1 0 0.022475f
r1 1 2 7.38
.ends

.subckt PM_COIN_BANK%X27/X3/X10/6 1 2
c0 1 0 0.0414043f
r1 1 2 7.38
.ends

.subckt PM_COIN_BANK%X28/X0/X6/6 1 2
r0 1 2 7.38
.ends

.subckt PM_COIN_BANK%X28/X0/X7/6 1 2
c0 1 0 0.0411036f
r1 1 2 7.38
.ends

.subckt PM_COIN_BANK%X28/X0/X8/6 1 2
c0 1 0 0.0412127f
r1 1 2 7.38
.ends

.subckt PM_COIN_BANK%X28/X0/X9/6 1 2
c0 1 0 0.022475f
r1 1 2 7.38
.ends

.subckt PM_COIN_BANK%X28/X0/X10/6 1 2
c0 1 0 0.0414043f
r1 1 2 7.38
.ends

.subckt PM_COIN_BANK%X28/X1/X6/6 1 2
r0 1 2 7.38
.ends

.subckt PM_COIN_BANK%X28/X1/X7/6 1 2
c0 1 0 0.0411036f
r1 1 2 7.38
.ends

.subckt PM_COIN_BANK%X28/X1/X8/6 1 2
c0 1 0 0.0412127f
r1 1 2 7.38
.ends

.subckt PM_COIN_BANK%X28/X1/X9/6 1 2
c0 1 0 0.022475f
r1 1 2 7.38
.ends

.subckt PM_COIN_BANK%X28/X1/X10/6 1 2
c0 1 0 0.0414043f
r1 1 2 7.38
.ends

.subckt PM_COIN_BANK%X28/X2/X6/6 1 2
r0 1 2 7.38
.ends

.subckt PM_COIN_BANK%X28/X2/X7/6 1 2
c0 1 0 0.0411036f
r1 1 2 7.38
.ends

.subckt PM_COIN_BANK%X28/X2/X8/6 1 2
c0 1 0 0.0412127f
r1 1 2 7.38
.ends

.subckt PM_COIN_BANK%X28/X2/X9/6 1 2
c0 1 0 0.022475f
r1 1 2 7.38
.ends

.subckt PM_COIN_BANK%X28/X2/X10/6 1 2
c0 1 0 0.0414043f
r1 1 2 7.38
.ends

.subckt PM_COIN_BANK%X28/X3/X6/6 1 2
r0 1 2 7.38
.ends

.subckt PM_COIN_BANK%X28/X3/X7/6 1 2
c0 1 0 0.0411036f
r1 1 2 7.38
.ends

.subckt PM_COIN_BANK%X28/X3/X8/6 1 2
c0 1 0 0.0412127f
r1 1 2 7.38
.ends

.subckt PM_COIN_BANK%X28/X3/X9/6 1 2
c0 1 0 0.022475f
r1 1 2 7.38
.ends

.subckt PM_COIN_BANK%X28/X3/X10/6 1 2
c0 1 0 0.0414043f
r1 1 2 7.38
.ends

.subckt PM_COIN_BANK%X0/X0/6 1 2
r0 1 2 7.38
.ends

.subckt PM_COIN_BANK%X1/X0/6 1 2
c0 1 0 0.0176401f
r1 1 2 7.38
.ends

.subckt PM_COIN_BANK%X2/X0/6 1 2
c0 1 0 0.0171659f
r1 1 2 7.38
.ends

.subckt PM_COIN_BANK%X3/X0/6 1 2
c0 1 0 0.0171659f
r1 1 2 7.38
.ends

.subckt PM_COIN_BANK%X4/X0/6 1 2
c0 1 0 0.0175677f
r1 1 2 7.38
.ends

.subckt PM_COIN_BANK%X5/X0/6 1 2
c0 1 0 0.0411036f
r1 1 2 7.38
.ends

.subckt PM_COIN_BANK%X6/X0/6 1 2
c0 1 0 0.0176454f
r1 1 2 7.38
.ends

.subckt PM_COIN_BANK%X7/X0/6 1 2
c0 1 0 0.0171659f
r1 1 2 7.38
.ends

.subckt PM_COIN_BANK%X8/X0/6 1 2
c0 1 0 0.0171659f
r1 1 2 7.38
.ends

.subckt PM_COIN_BANK%X9/X0/6 1 2
c0 1 0 0.0170055f
r1 1 2 7.38
.ends

.subckt PM_COIN_BANK%X10/X0/6 1 2
c0 1 0 0.0171659f
r1 1 2 7.38
.ends

.subckt PM_COIN_BANK%X11/X0/6 1 2
c0 1 0 0.0171659f
r1 1 2 7.38
.ends

.subckt PM_COIN_BANK%X13/X0/X2/X0/6 1 2
c0 1 0 0.0425476f
r1 1 2 7.38
.ends

.subckt PM_COIN_BANK%X13/X1/X2/X0/6 1 2
c0 1 0 0.0167744f
r1 1 2 7.38
.ends

.subckt PM_COIN_BANK%X14/X0/X2/X0/6 1 2
c0 1 0 0.0167744f
r1 1 2 7.38
.ends

.subckt PM_COIN_BANK%X14/X1/X2/X0/6 1 2
c0 1 0 0.0167744f
r1 1 2 7.38
.ends

.subckt PM_COIN_BANK%X15/X0/X2/X0/6 1 2
c0 1 0 0.0167744f
r1 1 2 7.38
.ends

.subckt PM_COIN_BANK%X15/X1/X2/X0/6 1 2
c0 1 0 0.0167744f
r1 1 2 7.38
.ends

.subckt PM_COIN_BANK%X16/X0/X2/X0/6 1 2
c0 1 0 0.0167744f
r1 1 2 7.38
.ends

.subckt PM_COIN_BANK%X16/X1/X2/X0/6 1 2
c0 1 0 0.0167744f
r1 1 2 7.38
.ends

.subckt PM_COIN_BANK%X13/X0/7 6 9 14 20
c0 34 0 0.917407f
c1 20 0 0.00798456f
c2 13 0 0.756554f
c3 4 0 0.657339f
r4 34 46 8
r5 31 39 8
r6 31 34 0.743483
r7 20 22 4.05
r8 16 19 0.036
r9 14 19 1.476
r10 13 46 0.252373
r11 13 22 16.3327
r12 12 46 0.0452667
r13 12 16 5.44423
r14 11 12 0.0933333
r15 11 19 16.3327
r16 8 9 5.85038
r17 6 7 3.5521
r18 5 6 5.2499
r19 4 39 0.24584
r20 4 8 16.3327
r21 3 39 0.0518
r22 3 7 5.44423
r23 2 3 0.0933333
r24 2 5 16.3327
.ends

.subckt PM_COIN_BANK%X13/X0/8 6 9 18 27
c0 50 0 0.0881638f
c1 47 0 0.662154f
c2 41 0 0.215327f
c3 39 0 0.187325f
c4 33 0 1.27706f
c5 25 0 0.127244f
c6 21 0 0.354655f
c7 16 0 0.148243f
c8 12 0 0.324163f
c9 6 0 0.0133361f
c10 4 0 0.627018f
r11 47 48 0.143603
r12 39 50 8
r13 37 39 0.0511096
r14 35 45 8
r15 33 37 0.0273753
r16 33 35 0.585325
r17 25 27 35.5
r18 21 25 6.98717
r19 21 23 24.8946
r20 20 50 0.00388889
r21 20 23 13.2552
r22 16 18 69
r23 12 16 6.81296
r24 12 14 26.3038
r25 11 47 0.0153796
r26 11 14 13.2552
r27 8 9 5.85038
r28 6 7 3.5521
r29 5 6 5.2499
r30 4 45 0.0014
r31 4 8 16.3327
r32 3 41 0.0718667
r33 3 45 0.29624
r34 3 7 5.44423
r35 2 41 0.028051
r36 2 48 0.0154693
r37 2 5 16.3327
.ends

.subckt PM_COIN_BANK%X13/X0/9 5 6 12 17 21
c0 51 0 0.807743f
c1 44 0 0.0474468f
c2 43 0 0.434715f
c3 42 0 0.035446f
c4 39 0 0.123132f
c5 26 0 0.106628f
c6 21 0 0.248807f
c7 17 0 0.10902f
c8 12 0 0.0462988f
c9 5 0 0.0147781f
c10 4 0 0.251063f
r11 52 54 0.112656
r12 51 54 0.0311719
r13 50 54 0.00810964
r14 49 52 0.00692951
r15 43 44 0.321525
r16 41 44 0.0440204
r17 41 42 0.0562121
r18 39 42 0.0391231
r19 39 51 0.0853125
r20 24 26 5.76
r21 19 26 5.0159
r22 19 21 105
r23 15 26 5.0159
r24 15 17 42.5
r25 14 43 0.0466465
r26 14 24 13.2552
r27 11 12 5.85038
r28 8 10 0.036
r29 6 8 1.44
r30 5 10 1.476
r31 4 50 0.22707
r32 4 11 16.3327
r33 3 49 0.0830508
r34 3 8 5.44423
r35 2 3 0.118644
r36 2 10 16.3327
.ends

.subckt PM_COIN_BANK%X13/X1/7 6 9 14 20
c0 34 0 0.932797f
c1 20 0 0.00798456f
c2 13 0 0.756554f
c3 4 0 0.656223f
r4 34 46 8
r5 31 39 8
r6 31 34 0.743483
r7 20 22 4.05
r8 16 19 0.036
r9 14 19 1.476
r10 13 46 0.252373
r11 13 22 16.3327
r12 12 46 0.0452667
r13 12 16 5.44423
r14 11 12 0.0933333
r15 11 19 16.3327
r16 8 9 5.85038
r17 6 7 3.5521
r18 5 6 5.2499
r19 4 39 0.24584
r20 4 8 16.3327
r21 3 39 0.0518
r22 3 7 5.44423
r23 2 3 0.0933333
r24 2 5 16.3327
.ends

.subckt PM_COIN_BANK%X13/X1/8 6 9 18 27
c0 50 0 0.0881638f
c1 47 0 0.662154f
c2 41 0 0.215327f
c3 39 0 0.187325f
c4 33 0 1.27706f
c5 25 0 0.127244f
c6 21 0 0.354655f
c7 16 0 0.148243f
c8 12 0 0.324163f
c9 6 0 0.0133361f
c10 4 0 0.627018f
r11 47 48 0.143603
r12 39 50 8
r13 37 39 0.0511096
r14 35 45 8
r15 33 37 0.0273753
r16 33 35 0.585325
r17 25 27 35.5
r18 21 25 6.98717
r19 21 23 24.8946
r20 20 50 0.00388889
r21 20 23 13.2552
r22 16 18 69
r23 12 16 6.81296
r24 12 14 26.3038
r25 11 47 0.0153796
r26 11 14 13.2552
r27 8 9 5.85038
r28 6 7 3.5521
r29 5 6 5.2499
r30 4 45 0.0014
r31 4 8 16.3327
r32 3 41 0.0718667
r33 3 45 0.29624
r34 3 7 5.44423
r35 2 41 0.028051
r36 2 48 0.0154693
r37 2 5 16.3327
.ends

.subckt PM_COIN_BANK%X13/X1/9 5 6 12 17 21
c0 51 0 0.781338f
c1 44 0 0.0474888f
c2 43 0 0.434715f
c3 42 0 0.0354835f
c4 39 0 0.123134f
c5 26 0 0.106628f
c6 21 0 0.248799f
c7 17 0 0.10902f
c8 12 0 0.0160868f
c9 5 0 0.0147781f
c10 4 0 0.281107f
r11 52 54 0.112656
r12 51 54 0.0311719
r13 50 54 0.00810964
r14 49 52 0.00692951
r15 43 44 0.321525
r16 41 44 0.0440204
r17 41 42 0.0562121
r18 39 42 0.0391231
r19 39 51 0.0853125
r20 24 26 5.76
r21 19 26 5.0159
r22 19 21 105
r23 15 26 5.0159
r24 15 17 42.5
r25 14 43 0.0466465
r26 14 24 13.2552
r27 11 12 5.85038
r28 8 10 0.036
r29 6 8 1.44
r30 5 10 1.476
r31 4 50 0.22707
r32 4 11 16.3327
r33 3 49 0.0830508
r34 3 8 5.44423
r35 2 3 0.118644
r36 2 10 16.3327
.ends

.subckt PM_COIN_BANK%X14/X0/7 6 9 14 20
c0 34 0 0.917407f
c1 20 0 0.00798456f
c2 13 0 0.756554f
c3 4 0 0.657339f
r4 34 46 8
r5 31 39 8
r6 31 34 0.743483
r7 20 22 4.05
r8 16 19 0.036
r9 14 19 1.476
r10 13 46 0.252373
r11 13 22 16.3327
r12 12 46 0.0452667
r13 12 16 5.44423
r14 11 12 0.0933333
r15 11 19 16.3327
r16 8 9 5.85038
r17 6 7 3.5521
r18 5 6 5.2499
r19 4 39 0.24584
r20 4 8 16.3327
r21 3 39 0.0518
r22 3 7 5.44423
r23 2 3 0.0933333
r24 2 5 16.3327
.ends

.subckt PM_COIN_BANK%X14/X0/8 6 9 18 27
c0 50 0 0.0881638f
c1 47 0 0.662154f
c2 41 0 0.215327f
c3 39 0 0.189283f
c4 33 0 1.27936f
c5 25 0 0.134067f
c6 21 0 0.355691f
c7 16 0 0.148243f
c8 12 0 0.324163f
c9 6 0 0.0133361f
c10 4 0 0.627018f
r11 47 48 0.143603
r12 39 50 8
r13 37 39 0.0511096
r14 35 45 8
r15 33 37 0.0273753
r16 33 35 0.585325
r17 25 27 35.5
r18 21 25 6.98717
r19 21 23 24.8946
r20 20 50 0.00388889
r21 20 23 13.2552
r22 16 18 69
r23 12 16 6.81296
r24 12 14 26.3038
r25 11 47 0.0153796
r26 11 14 13.2552
r27 8 9 5.85038
r28 6 7 3.5521
r29 5 6 5.2499
r30 4 45 0.0014
r31 4 8 16.3327
r32 3 41 0.0718667
r33 3 45 0.29624
r34 3 7 5.44423
r35 2 41 0.028051
r36 2 48 0.0154693
r37 2 5 16.3327
.ends

.subckt PM_COIN_BANK%X14/X0/9 5 6 12 17 21
c0 51 0 0.755974f
c1 44 0 0.0463308f
c2 43 0 0.434715f
c3 42 0 0.0344456f
c4 39 0 0.123095f
c5 26 0 0.106628f
c6 21 0 0.248807f
c7 17 0 0.10902f
c8 12 0 0.0341866f
c9 5 0 0.0164737f
c10 4 0 0.229883f
r11 52 54 0.112656
r12 51 54 0.0311719
r13 50 54 0.00810964
r14 49 52 0.00692951
r15 43 44 0.321525
r16 41 44 0.0440204
r17 41 42 0.0562121
r18 39 42 0.0391231
r19 39 51 0.0853125
r20 24 26 5.76
r21 19 26 5.0159
r22 19 21 105
r23 15 26 5.0159
r24 15 17 42.5
r25 14 43 0.0466465
r26 14 24 13.2552
r27 11 12 5.85038
r28 8 10 0.036
r29 6 8 1.44
r30 5 10 1.476
r31 4 50 0.22707
r32 4 11 16.3327
r33 3 49 0.0830508
r34 3 8 5.44423
r35 2 3 0.118644
r36 2 10 16.3327
.ends

.subckt PM_COIN_BANK%X14/X1/7 6 9 14 20
c0 34 0 0.958777f
c1 20 0 0.00798456f
c2 14 0 0.00701768f
c3 13 0 0.792915f
c4 6 0 0.00712958f
c5 4 0 0.698206f
r6 34 46 8
r7 31 39 8
r8 31 34 0.743483
r9 20 22 4.05
r10 16 19 0.036
r11 14 19 1.476
r12 13 46 0.252373
r13 13 22 16.3327
r14 12 46 0.0452667
r15 12 16 5.44423
r16 11 12 0.0933333
r17 11 19 16.3327
r18 8 9 5.85038
r19 6 7 3.5521
r20 5 6 5.2499
r21 4 39 0.24584
r22 4 8 16.3327
r23 3 39 0.0518
r24 3 7 5.44423
r25 2 3 0.0933333
r26 2 5 16.3327
.ends

.subckt PM_COIN_BANK%X14/X1/8 6 9 18 27
c0 50 0 0.0881638f
c1 47 0 0.710469f
c2 41 0 0.217102f
c3 39 0 0.189079f
c4 33 0 1.27912f
c5 25 0 0.1341f
c6 21 0 0.355726f
c7 16 0 0.16453f
c8 12 0 0.333496f
c9 6 0 0.0202696f
c10 4 0 0.658193f
r11 47 48 0.143603
r12 39 50 8
r13 37 39 0.0511096
r14 35 45 8
r15 33 37 0.0273753
r16 33 35 0.585325
r17 25 27 35.5
r18 21 25 6.98717
r19 21 23 24.8946
r20 20 50 0.00388889
r21 20 23 13.2552
r22 16 18 69
r23 12 16 6.81296
r24 12 14 26.3038
r25 11 47 0.0153796
r26 11 14 13.2552
r27 8 9 5.85038
r28 6 7 3.5521
r29 5 6 5.2499
r30 4 45 0.0014
r31 4 8 16.3327
r32 3 41 0.0718667
r33 3 45 0.29624
r34 3 7 5.44423
r35 2 41 0.028051
r36 2 48 0.0154693
r37 2 5 16.3327
.ends

.subckt PM_COIN_BANK%X14/X1/9 5 6 12 17 21
c0 51 0 0.755974f
c1 44 0 0.0463308f
c2 43 0 0.434715f
c3 42 0 0.0344456f
c4 39 0 0.123095f
c5 26 0 0.106628f
c6 21 0 0.248799f
c7 17 0 0.10902f
c8 12 0 0.0341866f
c9 5 0 0.0164737f
c10 4 0 0.229883f
r11 52 54 0.112656
r12 51 54 0.0311719
r13 50 54 0.00810964
r14 49 52 0.00692951
r15 43 44 0.321525
r16 41 44 0.0440204
r17 41 42 0.0562121
r18 39 42 0.0391231
r19 39 51 0.0853125
r20 24 26 5.76
r21 19 26 5.0159
r22 19 21 105
r23 15 26 5.0159
r24 15 17 42.5
r25 14 43 0.0466465
r26 14 24 13.2552
r27 11 12 5.85038
r28 8 10 0.036
r29 6 8 1.44
r30 5 10 1.476
r31 4 50 0.22707
r32 4 11 16.3327
r33 3 49 0.0830508
r34 3 8 5.44423
r35 2 3 0.118644
r36 2 10 16.3327
.ends

.subckt PM_COIN_BANK%X15/X0/7 6 9 14 20
c0 34 0 0.917408f
c1 20 0 0.00798456f
c2 13 0 0.756554f
c3 4 0 0.6589f
r4 34 46 8
r5 31 39 8
r6 31 34 0.743483
r7 20 22 4.05
r8 16 19 0.036
r9 14 19 1.476
r10 13 46 0.252373
r11 13 22 16.3327
r12 12 46 0.0452667
r13 12 16 5.44423
r14 11 12 0.0933333
r15 11 19 16.3327
r16 8 9 5.85038
r17 6 7 3.5521
r18 5 6 5.2499
r19 4 39 0.24584
r20 4 8 16.3327
r21 3 39 0.0518
r22 3 7 5.44423
r23 2 3 0.0933333
r24 2 5 16.3327
.ends

.subckt PM_COIN_BANK%X15/X0/8 6 9 18 27
c0 50 0 0.0881638f
c1 47 0 0.662154f
c2 41 0 0.215327f
c3 39 0 0.187325f
c4 33 0 1.28535f
c5 25 0 0.127244f
c6 21 0 0.354655f
c7 16 0 0.148243f
c8 12 0 0.324163f
c9 6 0 0.0133361f
c10 4 0 0.627018f
r11 47 48 0.143603
r12 39 50 8
r13 37 39 0.0511096
r14 35 45 8
r15 33 37 0.0273753
r16 33 35 0.585325
r17 25 27 35.5
r18 21 25 6.98717
r19 21 23 24.8946
r20 20 50 0.00388889
r21 20 23 13.2552
r22 16 18 69
r23 12 16 6.81296
r24 12 14 26.3038
r25 11 47 0.0153796
r26 11 14 13.2552
r27 8 9 5.85038
r28 6 7 3.5521
r29 5 6 5.2499
r30 4 45 0.0014
r31 4 8 16.3327
r32 3 41 0.0718667
r33 3 45 0.29624
r34 3 7 5.44423
r35 2 41 0.028051
r36 2 48 0.0154693
r37 2 5 16.3327
.ends

.subckt PM_COIN_BANK%X15/X0/9 5 6 12 17 21
c0 51 0 0.779859f
c1 44 0 0.0520671f
c2 43 0 0.476376f
c3 42 0 0.041086f
c4 39 0 0.180551f
c5 26 0 0.106628f
c6 21 0 0.252162f
c7 17 0 0.110166f
c8 12 0 0.0178735f
c9 5 0 0.0147781f
c10 4 0 0.24148f
r11 52 54 0.112656
r12 51 54 0.0311719
r13 50 54 0.00810964
r14 49 52 0.00692951
r15 43 44 0.321525
r16 41 44 0.0440204
r17 41 42 0.0562121
r18 39 42 0.0391231
r19 39 51 0.0853125
r20 24 26 5.76
r21 19 26 5.0159
r22 19 21 105
r23 15 26 5.0159
r24 15 17 42.5
r25 14 43 0.0466465
r26 14 24 13.2552
r27 11 12 5.85038
r28 8 10 0.036
r29 6 8 1.44
r30 5 10 1.476
r31 4 50 0.22707
r32 4 11 16.3327
r33 3 49 0.0830508
r34 3 8 5.44423
r35 2 3 0.118644
r36 2 10 16.3327
.ends

.subckt PM_COIN_BANK%X15/X1/7 6 9 14 20
c0 34 0 0.932798f
c1 20 0 0.00798456f
c2 13 0 0.756554f
c3 4 0 0.656223f
r4 34 46 8
r5 31 39 8
r6 31 34 0.743483
r7 20 22 4.05
r8 16 19 0.036
r9 14 19 1.476
r10 13 46 0.252373
r11 13 22 16.3327
r12 12 46 0.0452667
r13 12 16 5.44423
r14 11 12 0.0933333
r15 11 19 16.3327
r16 8 9 5.85038
r17 6 7 3.5521
r18 5 6 5.2499
r19 4 39 0.24584
r20 4 8 16.3327
r21 3 39 0.0518
r22 3 7 5.44423
r23 2 3 0.0933333
r24 2 5 16.3327
.ends

.subckt PM_COIN_BANK%X15/X1/8 6 9 18 27
c0 50 0 0.0881638f
c1 47 0 0.662154f
c2 41 0 0.215327f
c3 39 0 0.187325f
c4 33 0 1.27706f
c5 25 0 0.127244f
c6 21 0 0.354655f
c7 16 0 0.148243f
c8 12 0 0.324163f
c9 6 0 0.0133361f
c10 4 0 0.627018f
r11 47 48 0.143603
r12 39 50 8
r13 37 39 0.0511096
r14 35 45 8
r15 33 37 0.0273753
r16 33 35 0.585325
r17 25 27 35.5
r18 21 25 6.98717
r19 21 23 24.8946
r20 20 50 0.00388889
r21 20 23 13.2552
r22 16 18 69
r23 12 16 6.81296
r24 12 14 26.3038
r25 11 47 0.0153796
r26 11 14 13.2552
r27 8 9 5.85038
r28 6 7 3.5521
r29 5 6 5.2499
r30 4 45 0.0014
r31 4 8 16.3327
r32 3 41 0.0718667
r33 3 45 0.29624
r34 3 7 5.44423
r35 2 41 0.028051
r36 2 48 0.0154693
r37 2 5 16.3327
.ends

.subckt PM_COIN_BANK%X15/X1/9 5 6 12 17 21
c0 51 0 0.779928f
c1 44 0 0.0520671f
c2 43 0 0.476666f
c3 42 0 0.041137f
c4 39 0 0.179922f
c5 26 0 0.106628f
c6 21 0 0.25679f
c7 17 0 0.110193f
c8 12 0 0.0178735f
c9 5 0 0.0147781f
c10 4 0 0.241302f
r11 52 54 0.112656
r12 51 54 0.0311719
r13 50 54 0.00810964
r14 49 52 0.00692951
r15 43 44 0.321525
r16 41 44 0.0440204
r17 41 42 0.0562121
r18 39 42 0.0391231
r19 39 51 0.0853125
r20 24 26 5.76
r21 19 26 5.0159
r22 19 21 105
r23 15 26 5.0159
r24 15 17 42.5
r25 14 43 0.0466465
r26 14 24 13.2552
r27 11 12 5.85038
r28 8 10 0.036
r29 6 8 1.44
r30 5 10 1.476
r31 4 50 0.22707
r32 4 11 16.3327
r33 3 49 0.0830508
r34 3 8 5.44423
r35 2 3 0.118644
r36 2 10 16.3327
.ends

.subckt PM_COIN_BANK%X16/X0/7 6 9 14 20
c0 34 0 1.1029f
c1 20 0 0.00798456f
c2 13 0 0.770722f
c3 4 0 0.657339f
r4 34 46 8
r5 31 39 8
r6 31 34 0.743483
r7 20 22 4.05
r8 16 19 0.036
r9 14 19 1.476
r10 13 46 0.252373
r11 13 22 16.3327
r12 12 46 0.0452667
r13 12 16 5.44423
r14 11 12 0.0933333
r15 11 19 16.3327
r16 8 9 5.85038
r17 6 7 3.5521
r18 5 6 5.2499
r19 4 39 0.24584
r20 4 8 16.3327
r21 3 39 0.0518
r22 3 7 5.44423
r23 2 3 0.0933333
r24 2 5 16.3327
.ends

.subckt PM_COIN_BANK%X16/X0/8 6 9 18 27
c0 50 0 0.0881638f
c1 47 0 0.762235f
c2 41 0 0.215327f
c3 39 0 0.187325f
c4 33 0 1.4652f
c5 25 0 0.127244f
c6 21 0 0.354655f
c7 16 0 0.148243f
c8 12 0 0.324268f
c9 6 0 0.0133361f
c10 4 0 0.642184f
r11 47 48 0.143603
r12 39 50 8
r13 37 39 0.0511096
r14 35 45 8
r15 33 37 0.0273753
r16 33 35 0.585325
r17 25 27 35.5
r18 21 25 6.98717
r19 21 23 24.8946
r20 20 50 0.00388889
r21 20 23 13.2552
r22 16 18 69
r23 12 16 6.81296
r24 12 14 26.3038
r25 11 47 0.0153796
r26 11 14 13.2552
r27 8 9 5.85038
r28 6 7 3.5521
r29 5 6 5.2499
r30 4 45 0.0014
r31 4 8 16.3327
r32 3 41 0.0718667
r33 3 45 0.29624
r34 3 7 5.44423
r35 2 41 0.028051
r36 2 48 0.0154693
r37 2 5 16.3327
.ends

.subckt PM_COIN_BANK%X16/X0/9 5 6 12 17 21
c0 51 0 0.755974f
c1 44 0 0.0463308f
c2 43 0 0.434715f
c3 42 0 0.0344456f
c4 39 0 0.123095f
c5 26 0 0.106628f
c6 21 0 0.248807f
c7 17 0 0.10902f
c8 12 0 0.0341866f
c9 5 0 0.0164737f
c10 4 0 0.229883f
r11 52 54 0.112656
r12 51 54 0.0311719
r13 50 54 0.00810964
r14 49 52 0.00692951
r15 43 44 0.321525
r16 41 44 0.0440204
r17 41 42 0.0562121
r18 39 42 0.0391231
r19 39 51 0.0853125
r20 24 26 5.76
r21 19 26 5.0159
r22 19 21 105
r23 15 26 5.0159
r24 15 17 42.5
r25 14 43 0.0466465
r26 14 24 13.2552
r27 11 12 5.85038
r28 8 10 0.036
r29 6 8 1.44
r30 5 10 1.476
r31 4 50 0.22707
r32 4 11 16.3327
r33 3 49 0.0830508
r34 3 8 5.44423
r35 2 3 0.118644
r36 2 10 16.3327
.ends

.subckt PM_COIN_BANK%X16/X1/7 6 9 14 20
c0 34 0 1.12077f
c1 20 0 0.00798456f
c2 14 0 0.0117428f
c3 13 0 0.809642f
c4 4 0 0.656223f
r5 34 46 8
r6 31 39 8
r7 31 34 0.743483
r8 20 22 4.05
r9 16 19 0.036
r10 14 19 1.476
r11 13 46 0.252373
r12 13 22 16.3327
r13 12 46 0.0452667
r14 12 16 5.44423
r15 11 12 0.0933333
r16 11 19 16.3327
r17 8 9 5.85038
r18 6 7 3.5521
r19 5 6 5.2499
r20 4 39 0.24584
r21 4 8 16.3327
r22 3 39 0.0518
r23 3 7 5.44423
r24 2 3 0.0933333
r25 2 5 16.3327
.ends

.subckt PM_COIN_BANK%X16/X1/8 6 9 18 27
c0 50 0 0.0881638f
c1 47 0 0.758219f
c2 41 0 0.215327f
c3 39 0 0.187325f
c4 33 0 1.46554f
c5 25 0 0.12748f
c6 21 0 0.354655f
c7 16 0 0.162242f
c8 12 0 0.327063f
c9 6 0 0.0133361f
c10 4 0 0.641656f
r11 47 48 0.143603
r12 39 50 8
r13 37 39 0.0511096
r14 35 45 8
r15 33 37 0.0273753
r16 33 35 0.585325
r17 25 27 35.5
r18 21 25 6.98717
r19 21 23 24.8946
r20 20 50 0.00388889
r21 20 23 13.2552
r22 16 18 69
r23 12 16 6.81296
r24 12 14 26.3038
r25 11 47 0.0153796
r26 11 14 13.2552
r27 8 9 5.85038
r28 6 7 3.5521
r29 5 6 5.2499
r30 4 45 0.0014
r31 4 8 16.3327
r32 3 41 0.0718667
r33 3 45 0.29624
r34 3 7 5.44423
r35 2 41 0.028051
r36 2 48 0.0154693
r37 2 5 16.3327
.ends

.subckt PM_COIN_BANK%X16/X1/9 5 6 12 17 21
c0 51 0 0.77413f
c1 44 0 0.0463308f
c2 43 0 0.434715f
c3 42 0 0.0344456f
c4 39 0 0.123095f
c5 26 0 0.106628f
c6 21 0 0.24972f
c7 17 0 0.10902f
c8 12 0 0.0341866f
c9 5 0 0.0192811f
c10 4 0 0.229883f
r11 52 54 0.112656
r12 51 54 0.0311719
r13 50 54 0.00810964
r14 49 52 0.00692951
r15 43 44 0.321525
r16 41 44 0.0440204
r17 41 42 0.0562121
r18 39 42 0.0391231
r19 39 51 0.0853125
r20 24 26 5.76
r21 19 26 5.0159
r22 19 21 105
r23 15 26 5.0159
r24 15 17 42.5
r25 14 43 0.0466465
r26 14 24 13.2552
r27 11 12 5.85038
r28 8 10 0.036
r29 6 8 1.44
r30 5 10 1.476
r31 4 50 0.22707
r32 4 11 16.3327
r33 3 49 0.0830508
r34 3 8 5.44423
r35 2 3 0.118644
r36 2 10 16.3327
.ends

.subckt PM_COIN_BANK%X12/6 5 9 36 42 43
c0 31 0 0.0852672f
c1 30 0 0.415127f
c2 29 0 0.0385334f
c3 24 0 0.119412f
c4 22 0 0.339146f
c5 20 0 0.464962f
c6 14 0 0.106768f
c7 9 0 0.223181f
c8 5 0 0.108753f
r9 43 45 3.87
r10 42 45 3.51
r11 38 40 0.036
r12 36 38 1.368
r13 30 31 0.256308
r14 28 31 0.0393711
r15 28 29 0.0457333
r16 26 40 16.3327
r17 24 38 5.44423
r18 24 26 0.0813954
r19 22 29 0.156822
r20 22 32 0.114496
r21 22 24 0.0569767
r22 20 45 16.3327
r23 18 32 0.00837494
r24 18 20 0.225842
r25 12 14 5.76
r26 7 14 5.0159
r27 7 9 105
r28 3 14 5.0159
r29 3 5 42.5
r30 2 30 0.044613
r31 2 12 13.2552
.ends

.subckt PM_COIN_BANK%X12/7 1 2
c0 1 0 0.0396134f
r1 1 2 2.952
.ends

.subckt PM_COIN_BANK%X13/X2/6 5 9 36 42 43
c0 31 0 0.0858235f
c1 30 0 0.413803f
c2 29 0 0.0385948f
c3 24 0 0.120227f
c4 22 0 0.345042f
c5 20 0 0.471066f
c6 14 0 0.106628f
c7 9 0 0.223146f
c8 5 0 0.108826f
r9 43 45 3.87
r10 42 45 3.51
r11 38 40 0.036
r12 36 38 1.368
r13 30 31 0.256308
r14 28 31 0.0393711
r15 28 29 0.0457333
r16 26 40 16.3327
r17 24 38 5.44423
r18 24 26 0.0813954
r19 22 29 0.156822
r20 22 32 0.114496
r21 22 24 0.0569767
r22 20 45 16.3327
r23 18 32 0.00837494
r24 18 20 0.225842
r25 12 14 5.76
r26 7 14 5.0159
r27 7 9 105
r28 3 14 5.0159
r29 3 5 42.5
r30 2 30 0.044613
r31 2 12 13.2552
.ends

.subckt PM_COIN_BANK%X13/X2/7 1 2
c0 1 0 0.0396134f
r1 1 2 2.952
.ends

.subckt PM_COIN_BANK%X14/X2/6 5 9 36 42 43
c0 31 0 0.0858235f
c1 30 0 0.413803f
c2 29 0 0.0385948f
c3 24 0 0.120227f
c4 22 0 0.345042f
c5 20 0 0.475907f
c6 14 0 0.106628f
c7 9 0 0.223137f
c8 5 0 0.108818f
r9 43 45 3.87
r10 42 45 3.51
r11 38 40 0.036
r12 36 38 1.368
r13 30 31 0.256308
r14 28 31 0.0393711
r15 28 29 0.0457333
r16 26 40 16.3327
r17 24 38 5.44423
r18 24 26 0.0813954
r19 22 29 0.156822
r20 22 32 0.114496
r21 22 24 0.0569767
r22 20 45 16.3327
r23 18 32 0.00837494
r24 18 20 0.225842
r25 12 14 5.76
r26 7 14 5.0159
r27 7 9 105
r28 3 14 5.0159
r29 3 5 42.5
r30 2 30 0.044613
r31 2 12 13.2552
.ends

.subckt PM_COIN_BANK%X14/X2/7 1 2
c0 1 0 0.0396134f
r1 1 2 2.952
.ends

.subckt PM_COIN_BANK%X15/X2/6 5 9 36 42 43
c0 31 0 0.0858235f
c1 30 0 0.413823f
c2 29 0 0.0385948f
c3 24 0 0.120227f
c4 22 0 0.345042f
c5 20 0 0.471066f
c6 14 0 0.106628f
c7 9 0 0.223389f
c8 5 0 0.109035f
r9 43 45 3.87
r10 42 45 3.51
r11 38 40 0.036
r12 36 38 1.368
r13 30 31 0.256308
r14 28 31 0.0393711
r15 28 29 0.0457333
r16 26 40 16.3327
r17 24 38 5.44423
r18 24 26 0.0813954
r19 22 29 0.156822
r20 22 32 0.114496
r21 22 24 0.0569767
r22 20 45 16.3327
r23 18 32 0.00837494
r24 18 20 0.225842
r25 12 14 5.76
r26 7 14 5.0159
r27 7 9 105
r28 3 14 5.0159
r29 3 5 42.5
r30 2 30 0.044613
r31 2 12 13.2552
.ends

.subckt PM_COIN_BANK%X15/X2/7 1 2
c0 1 0 0.0396134f
r1 1 2 2.952
.ends

.subckt PM_COIN_BANK%X16/X2/6 5 9 36 42 43
c0 31 0 0.0858235f
c1 30 0 0.413803f
c2 29 0 0.0385948f
c3 24 0 0.120227f
c4 22 0 0.345042f
c5 20 0 0.47105f
c6 14 0 0.106628f
c7 9 0 0.223085f
c8 5 0 0.108773f
r9 43 45 3.87
r10 42 45 3.51
r11 38 40 0.036
r12 36 38 1.368
r13 30 31 0.256308
r14 28 31 0.0393711
r15 28 29 0.0457333
r16 26 40 16.3327
r17 24 38 5.44423
r18 24 26 0.0813954
r19 22 29 0.156822
r20 22 32 0.114496
r21 22 24 0.0569767
r22 20 45 16.3327
r23 18 32 0.00837494
r24 18 20 0.225842
r25 12 14 5.76
r26 7 14 5.0159
r27 7 9 105
r28 3 14 5.0159
r29 3 5 42.5
r30 2 30 0.044613
r31 2 12 13.2552
.ends

.subckt PM_COIN_BANK%X16/X2/7 1 2
c0 1 0 0.0396134f
r1 1 2 2.952
.ends

.subckt PM_COIN_BANK%X13/8 6 9 29 33
c0 59 0 0.0565205f
c1 57 0 0.180931f
c2 51 0 1.01814f
c3 48 0 0.0980254f
c4 46 0 0.68798f
c5 38 0 0.114169f
c6 33 0 0.27619f
c7 29 0 0.137047f
c8 24 0 0.0705517f
c9 6 0 0.013464f
c10 4 0 0.260593f
c11 3 0 0.384295f
r12 49 59 0.0353614
r13 49 51 0.479571
r14 48 59 0.0769231
r15 46 57 8
r16 43 51 8
r17 43 46 0.352194
r18 35 38 6.3
r19 31 35 5.0159
r20 31 33 105
r21 27 35 5.0159
r22 27 29 42.5
r23 26 57 0.00355224
r24 26 38 13.2552
r25 24 48 0.00376628
r26 19 24 0.0347069
r27 16 24 0.0347069
r28 8 9 5.85038
r29 6 7 3.5521
r30 5 6 5.2499
r31 4 16 0.11564
r32 4 8 16.3327
r33 3 19 0.0970667
r34 3 7 5.44423
r35 2 3 0.0933333
r36 2 5 16.3327
.ends

.subckt PM_COIN_BANK%X13/9 6 9 29 33
c0 55 0 0.712124f
c1 53 0 0.213474f
c2 46 0 1.31354f
c3 38 0 0.111293f
c4 33 0 0.250022f
c5 29 0 0.130143f
c6 26 0 0.166271f
c7 6 0 0.013464f
c8 4 0 0.261114f
c9 3 0 0.375606f
r10 53 55 0.3206
r11 46 55 8
r12 43 51 8
r13 43 46 0.607551
r14 36 38 5.76
r15 31 38 5.0159
r16 31 33 105
r17 27 38 5.0159
r18 27 29 42.5
r19 26 51 0.0170625
r20 26 36 13.2552
r21 23 53 0.10307
r22 23 24 0.00376628
r23 19 24 0.0347069
r24 16 24 0.0347069
r25 8 9 5.85038
r26 6 7 3.5521
r27 5 6 5.2499
r28 4 16 0.11564
r29 4 8 16.3327
r30 3 19 0.0970667
r31 3 7 5.44423
r32 2 3 0.0933333
r33 2 5 16.3327
.ends

.subckt PM_COIN_BANK%X13/10 6 9 15 18 58 62 73 77 89 95
c0 175 0 0.0759247f
c1 168 0 0.211311f
c2 167 0 0.961324f
c3 147 0 0.578247f
c4 146 0 0.140219f
c5 140 0 1.38375f
c6 131 0 0.0859989f
c7 130 0 0.135369f
c8 128 0 0.368173f
c9 119 0 3.42769f
c10 113 0 0.774229f
c11 110 0 0.377487f
c12 105 0 0.479285f
c13 89 0 0.00103804f
c14 88 0 0.29094f
c15 87 0 0.351537f
c16 82 0 0.11902f
c17 77 0 0.290193f
c18 73 0 0.124733f
c19 70 0 0.156909f
c20 67 0 0.106628f
c21 62 0 0.224063f
c22 58 0 0.109067f
c23 55 0 0.166251f
c24 38 0 0.12347f
c25 36 0 1.37459f
c26 34 0 0.150394f
c27 30 0 0.118273f
c28 29 0 0.764254f
c29 27 0 0.132877f
c30 13 0 0.594f
c31 9 0 0.00798456f
c32 4 0 0.706049f
r33 170 175 0.0353904
r34 167 169 0.0476608
r35 167 168 0.22732
r36 147 175 0.283684
r37 147 165 0.0353376
r38 140 170 0.0554167
r39 140 169 0.757083
r40 135 146 0.0353134
r41 132 146 0.0353134
r42 130 146 0.00333176
r43 130 131 0.103118
r44 126 131 0.0401324
r45 126 128 0.2434
r46 119 120 1.26253
r47 119 165 0.28506
r48 116 142 8
r49 113 140 8
r50 113 116 0.351
r51 111 119 8
r52 110 111 0.234191
r53 110 128 8
r54 108 122 8
r55 105 120 8
r56 105 108 0.514491
r57 95 97 4.05
r58 91 94 0.036
r59 89 94 1.476
r60 88 132 0.12964
r61 88 97 16.3327
r62 87 135 0.0812
r63 87 91 5.44423
r64 86 87 0.0933333
r65 86 94 16.3327
r66 80 82 5.76
r67 75 82 5.0159
r68 75 77 105
r69 71 82 5.0159
r70 71 73 42.5
r71 70 142 0.0147656
r72 70 80 13.2552
r73 65 67 5.76
r74 60 67 5.0159
r75 60 62 105
r76 56 67 5.0159
r77 56 58 42.5
r78 55 122 0.00929688
r79 55 65 13.2552
r80 53 168 0.0140641
r81 38 50 2.66667
r82 38 158 0.00338355
r83 36 158 0.946303
r84 36 53 8
r85 33 38 0.0323856
r86 33 34 0.118182
r87 29 34 0.0377332
r88 29 30 0.30711
r89 27 43 4
r90 25 30 0.0377332
r91 25 27 0.165032
r92 17 18 5.85038
r93 15 16 3.5521
r94 14 15 5.2499
r95 13 17 16.3327
r96 12 50 0.0434
r97 12 13 0.29764
r98 12 16 5.44423
r99 11 50 0.0499333
r100 11 14 16.3327
r101 8 9 5.85038
r102 6 7 3.5521
r103 5 6 5.2499
r104 4 8 16.3327
r105 3 43 0.0508667
r106 3 4 0.29764
r107 3 7 5.44423
r108 2 43 0.0424667
r109 2 5 16.3327
.ends

.subckt PM_COIN_BANK%X14/8 6 9 29 33
c0 59 0 0.0565205f
c1 57 0 0.180931f
c2 51 0 1.03686f
c3 48 0 0.0980254f
c4 46 0 0.654772f
c5 38 0 0.114169f
c6 33 0 0.27619f
c7 29 0 0.137047f
c8 24 0 0.0705517f
c9 6 0 0.013464f
c10 4 0 0.260594f
c11 3 0 0.384296f
r12 49 59 0.0353614
r13 49 51 0.479571
r14 48 59 0.0769231
r15 46 57 8
r16 43 51 8
r17 43 46 0.352194
r18 35 38 6.3
r19 31 35 5.0159
r20 31 33 105
r21 27 35 5.0159
r22 27 29 42.5
r23 26 57 0.00355224
r24 26 38 13.2552
r25 24 48 0.00376628
r26 19 24 0.0347069
r27 16 24 0.0347069
r28 8 9 5.85038
r29 6 7 3.5521
r30 5 6 5.2499
r31 4 16 0.11564
r32 4 8 16.3327
r33 3 19 0.0970667
r34 3 7 5.44423
r35 2 3 0.0933333
r36 2 5 16.3327
.ends

.subckt PM_COIN_BANK%X14/9 6 9 29 33
c0 55 0 0.737309f
c1 53 0 0.213474f
c2 46 0 1.22428f
c3 38 0 0.111293f
c4 33 0 0.24906f
c5 29 0 0.13141f
c6 26 0 0.167017f
c7 6 0 0.013464f
c8 4 0 0.261115f
c9 3 0 0.375607f
r10 53 55 0.3206
r11 46 55 8
r12 43 51 8
r13 43 46 0.607551
r14 36 38 5.76
r15 31 38 5.0159
r16 31 33 105
r17 27 38 5.0159
r18 27 29 42.5
r19 26 51 0.0170625
r20 26 36 13.2552
r21 23 53 0.10307
r22 23 24 0.00376628
r23 19 24 0.0347069
r24 16 24 0.0347069
r25 8 9 5.85038
r26 6 7 3.5521
r27 5 6 5.2499
r28 4 16 0.11564
r29 4 8 16.3327
r30 3 19 0.0970667
r31 3 7 5.44423
r32 2 3 0.0933333
r33 2 5 16.3327
.ends

.subckt PM_COIN_BANK%X14/10 6 9 15 18 58 62 73 77 89 95
c0 175 0 0.0759247f
c1 168 0 0.236415f
c2 167 0 1.18444f