* File: Coin_bank.pex.sp
* Created: Sun Jan 14 15:06:01 2024
* Program "Calibre xRC"
* Version "v2021.3_35.19"
* 
.include "Coin_bank.pex.sp.pex"
.subckt COIN_BANK  State1 State0 S3 S2 S1 S0 Mo3 Mo2 Mo1 Mo0 Init3 Init2 Init1 Init0 M3 M2 M1 M0 Store Power Clk VDD VSS
* 
* M3	M3
* M2	M2
* M1	M1
* M0	M0
* CLK	CLK
* VSS	VSS
* VDD	VDD
* MO3	MO3
* MO2	MO2
* MO1	MO1
* S0	S0
* POWER	POWER
* MO0	MO0
* S2	S2
* STATE1	STATE1
* STATE0	STATE0
* STORE	STORE
* S1	S1
* S3	S3
* INIT3	INIT3
* INIT2	INIT2
* INIT1	INIT1
* INIT0	INIT0
mX0/X0/M0 N_X0/X0/6_X0/X0/M0_d N_9_X0/X0/M0_g N_VSS_X0/X0/M0_s N_VSS_X0/X0/M0_b
+ N_18 L=1.8e-07 W=1e-06 AD=4.1e-13 AS=9.1e-13 PD=8.2e-07 PS=2.82e-06
mX0/X0/M1 N_47_X0/X0/M1_d N_10_X0/X0/M1_g N_X0/X0/6_X0/X0/M1_s N_VSS_X0/X0/M0_b
+ N_18 L=1.8e-07 W=1e-06 AD=9.1e-13 AS=4.1e-13 PD=2.82e-06 PS=8.2e-07
mX0/X0/M2 N_47_X0/X0/M2_d N_9_X0/X0/M2_g N_VDD_X0/X0/M2_s N_VDD_X0/X0/M2_b P_18
+ L=1.8e-07 W=2.5e-06 AD=1.025e-12 AS=2.275e-12 PD=8.2e-07 PS=4.32e-06
mX0/X0/M3 N_VDD_X0/X0/M3_d N_10_X0/X0/M3_g N_47_X0/X0/M3_s N_VDD_X0/X0/M2_b P_18
+ L=1.8e-07 W=2.5e-06 AD=2.275e-12 AS=1.025e-12 PD=4.32e-06 PS=8.2e-07
mX0/X1/M0 N_11_X0/X1/M0_d N_47_X0/X1/M0_g N_VSS_X0/X1/M0_s N_VSS_X0/X0/M0_b N_18
+ L=1.8e-07 W=1e-06 AD=9.1e-13 AS=9.1e-13 PD=2.82e-06 PS=2.82e-06
mX0/X1/M1 N_11_X0/X1/M1_d N_47_X0/X1/M1_g N_VDD_X0/X1/M1_s N_VDD_X0/X1/M1_b P_18
+ L=1.8e-07 W=2.5e-06 AD=2.275e-12 AS=2.275e-12 PD=4.32e-06 PS=4.32e-06
mX1/X0/M0 N_X1/X0/6_X1/X0/M0_d N_STATE1_X1/X0/M0_g N_VSS_X1/X0/M0_s
+ N_VSS_X0/X0/M0_b N_18 L=1.8e-07 W=1e-06 AD=4.1e-13 AS=9.1e-13 PD=8.2e-07
+ PS=2.82e-06
mX1/X0/M1 N_48_X1/X0/M1_d N_STATE0_X1/X0/M1_g N_X1/X0/6_X1/X0/M1_s
+ N_VSS_X0/X0/M0_b N_18 L=1.8e-07 W=1e-06 AD=9.1e-13 AS=4.1e-13 PD=2.82e-06
+ PS=8.2e-07
mX1/X0/M2 N_48_X1/X0/M2_d N_STATE1_X1/X0/M2_g N_VDD_X1/X0/M2_s N_VDD_X1/X0/M2_b
+ P_18 L=1.8e-07 W=2.5e-06 AD=1.025e-12 AS=2.275e-12 PD=8.2e-07 PS=4.32e-06
mX1/X0/M3 N_VDD_X1/X0/M3_d N_STATE0_X1/X0/M3_g N_48_X1/X0/M3_s N_VDD_X1/X0/M2_b
+ P_18 L=1.8e-07 W=2.5e-06 AD=2.275e-12 AS=1.025e-12 PD=4.32e-06 PS=8.2e-07
mX1/X1/M0 N_S3_X1/X1/M0_d N_48_X1/X1/M0_g N_VSS_X1/X1/M0_s N_VSS_X0/X0/M0_b N_18
+ L=1.8e-07 W=1e-06 AD=9.1e-13 AS=9.1e-13 PD=2.82e-06 PS=2.82e-06
mX1/X1/M1 N_S3_X1/X1/M1_d N_48_X1/X1/M1_g N_VDD_X1/X1/M1_s N_VDD_X1/X1/M1_b P_18
+ L=1.8e-07 W=2.5e-06 AD=2.275e-12 AS=2.275e-12 PD=4.32e-06 PS=4.32e-06
mX2/X0/M0 N_X2/X0/6_X2/X0/M0_d N_S1_X2/X0/M0_g N_VSS_X2/X0/M0_s N_VSS_X0/X0/M0_b
+ N_18 L=1.8e-07 W=1e-06 AD=4.1e-13 AS=9.1e-13 PD=8.2e-07 PS=2.82e-06
mX2/X0/M1 N_16_X2/X0/M1_d N_STORE_X2/X0/M1_g N_X2/X0/6_X2/X0/M1_s
+ N_VSS_X0/X0/M0_b N_18 L=1.8e-07 W=1e-06 AD=9.1e-13 AS=4.1e-13 PD=2.82e-06
+ PS=8.2e-07
mX2/X0/M2 N_16_X2/X0/M2_d N_S1_X2/X0/M2_g N_VDD_X2/X0/M2_s N_VDD_X2/X0/M2_b P_18
+ L=1.8e-07 W=2.5e-06 AD=1.025e-12 AS=2.275e-12 PD=8.2e-07 PS=4.32e-06
mX2/X0/M3 N_VDD_X2/X0/M3_d N_STORE_X2/X0/M3_g N_16_X2/X0/M3_s N_VDD_X2/X0/M2_b
+ P_18 L=1.8e-07 W=2.5e-06 AD=2.275e-12 AS=1.025e-12 PD=4.32e-06 PS=8.2e-07
mX2/X1/M0 N_42_X2/X1/M0_d N_16_X2/X1/M0_g N_VSS_X2/X1/M0_s N_VSS_X0/X0/M0_b N_18
+ L=1.8e-07 W=1e-06 AD=9.1e-13 AS=9.1e-13 PD=2.82e-06 PS=2.82e-06
mX2/X1/M1 N_42_X2/X1/M1_d N_16_X2/X1/M1_g N_VDD_X2/X1/M1_s N_VDD_X2/X1/M1_b P_18
+ L=1.8e-07 W=2.5e-06 AD=2.275e-12 AS=2.275e-12 PD=4.32e-06 PS=4.32e-06
mX3/X0/M0 N_X3/X0/6_X3/X0/M0_d N_19_X3/X0/M0_g N_VSS_X3/X0/M0_s N_VSS_X0/X0/M0_b
+ N_18 L=1.8e-07 W=1e-06 AD=4.1e-13 AS=9.1e-13 PD=8.2e-07 PS=2.82e-06
mX3/X0/M1 N_49_X3/X0/M1_d N_STATE1_X3/X0/M1_g N_X3/X0/6_X3/X0/M1_s
+ N_VSS_X0/X0/M0_b N_18 L=1.8e-07 W=1e-06 AD=9.1e-13 AS=4.1e-13 PD=2.82e-06
+ PS=8.2e-07
mX3/X0/M2 N_49_X3/X0/M2_d N_19_X3/X0/M2_g N_VDD_X3/X0/M2_s N_VDD_X3/X0/M2_b P_18
+ L=1.8e-07 W=2.5e-06 AD=1.025e-12 AS=2.275e-12 PD=8.2e-07 PS=4.32e-06
mX3/X0/M3 N_VDD_X3/X0/M3_d N_STATE1_X3/X0/M3_g N_49_X3/X0/M3_s N_VDD_X3/X0/M2_b
+ P_18 L=1.8e-07 W=2.5e-06 AD=2.275e-12 AS=1.025e-12 PD=4.32e-06 PS=8.2e-07
mX3/X1/M0 N_MO0_X3/X1/M0_d N_49_X3/X1/M0_g N_VSS_X3/X1/M0_s N_VSS_X0/X0/M0_b
+ N_18 L=1.8e-07 W=1e-06 AD=9.1e-13 AS=9.1e-13 PD=2.82e-06 PS=2.82e-06
mX3/X1/M1 N_MO0_X3/X1/M1_d N_49_X3/X1/M1_g N_VDD_X3/X1/M1_s N_VDD_X3/X1/M1_b
+ P_18 L=1.8e-07 W=2.5e-06 AD=2.275e-12 AS=2.275e-12 PD=4.32e-06 PS=4.32e-06
mX4/X0/M0 N_X4/X0/6_X4/X0/M0_d N_STATE1_X4/X0/M0_g N_VSS_X4/X0/M0_s
+ N_VSS_X0/X0/M0_b N_18 L=1.8e-07 W=1e-06 AD=4.1e-13 AS=9.1e-13 PD=8.2e-07
+ PS=2.82e-06
mX4/X0/M1 N_50_X4/X0/M1_d N_23_X4/X0/M1_g N_X4/X0/6_X4/X0/M1_s N_VSS_X0/X0/M0_b
+ N_18 L=1.8e-07 W=1e-06 AD=9.1e-13 AS=4.1e-13 PD=2.82e-06 PS=8.2e-07
mX4/X0/M2 N_50_X4/X0/M2_d N_STATE1_X4/X0/M2_g N_VDD_X4/X0/M2_s N_VDD_X4/X0/M2_b
+ P_18 L=1.8e-07 W=2.5e-06 AD=1.025e-12 AS=2.275e-12 PD=8.2e-07 PS=4.32e-06
mX4/X0/M3 N_VDD_X4/X0/M3_d N_23_X4/X0/M3_g N_50_X4/X0/M3_s N_VDD_X4/X0/M2_b P_18
+ L=1.8e-07 W=2.5e-06 AD=2.275e-12 AS=1.025e-12 PD=4.32e-06 PS=8.2e-07
mX4/X1/M0 N_S2_X4/X1/M0_d N_50_X4/X1/M0_g N_VSS_X4/X1/M0_s N_VSS_X0/X0/M0_b N_18
+ L=1.8e-07 W=1e-06 AD=9.1e-13 AS=9.1e-13 PD=2.82e-06 PS=2.82e-06
mX4/X1/M1 N_S2_X4/X1/M1_d N_50_X4/X1/M1_g N_VDD_X4/X1/M1_s N_VDD_X4/X1/M1_b P_18
+ L=1.8e-07 W=2.5e-06 AD=2.275e-12 AS=2.275e-12 PD=4.32e-06 PS=4.32e-06
mX5/X0/M0 N_X5/X0/6_X5/X0/M0_d N_43_X5/X0/M0_g N_VSS_X5/X0/M0_s N_VSS_X0/X0/M0_b
+ N_18 L=1.8e-07 W=1e-06 AD=4.1e-13 AS=9.1e-13 PD=8.2e-07 PS=2.82e-06
mX5/X0/M1 N_51_X5/X0/M1_d N_POWER_X5/X0/M1_g N_X5/X0/6_X5/X0/M1_s
+ N_VSS_X0/X0/M0_b N_18 L=1.8e-07 W=1e-06 AD=9.1e-13 AS=4.1e-13 PD=2.82e-06
+ PS=8.2e-07
mX5/X0/M2 N_51_X5/X0/M2_d N_43_X5/X0/M2_g N_VDD_X5/X0/M2_s N_VDD_X5/X0/M2_b P_18
+ L=1.8e-07 W=2.5e-06 AD=1.025e-12 AS=2.275e-12 PD=8.2e-07 PS=4.32e-06
mX5/X0/M3 N_VDD_X5/X0/M3_d N_POWER_X5/X0/M3_g N_51_X5/X0/M3_s N_VDD_X5/X0/M2_b
+ P_18 L=1.8e-07 W=2.5e-06 AD=2.275e-12 AS=1.025e-12 PD=4.32e-06 PS=8.2e-07
mX5/X1/M0 N_9_X5/X1/M0_d N_51_X5/X1/M0_g N_VSS_X5/X1/M0_s N_VSS_X0/X0/M0_b N_18
+ L=1.8e-07 W=1e-06 AD=9.1e-13 AS=9.1e-13 PD=2.82e-06 PS=2.82e-06
mX5/X1/M1 N_9_X5/X1/M1_d N_51_X5/X1/M1_g N_VDD_X5/X1/M1_s N_VDD_X5/X1/M1_b P_18
+ L=1.8e-07 W=2.5e-06 AD=2.275e-12 AS=2.275e-12 PD=4.32e-06 PS=4.32e-06
mX6/X0/M0 N_X6/X0/6_X6/X0/M0_d N_26_X6/X0/M0_g N_VSS_X6/X0/M0_s N_VSS_X0/X0/M0_b
+ N_18 L=1.8e-07 W=1e-06 AD=4.1e-13 AS=9.1e-13 PD=8.2e-07 PS=2.82e-06
mX6/X0/M1 N_52_X6/X0/M1_d N_STATE0_X6/X0/M1_g N_X6/X0/6_X6/X0/M1_s
+ N_VSS_X0/X0/M0_b N_18 L=1.8e-07 W=1e-06 AD=9.1e-13 AS=4.1e-13 PD=2.82e-06
+ PS=8.2e-07
mX6/X0/M2 N_52_X6/X0/M2_d N_26_X6/X0/M2_g N_VDD_X6/X0/M2_s N_VDD_X6/X0/M2_b P_18
+ L=1.8e-07 W=2.5e-06 AD=1.025e-12 AS=2.275e-12 PD=8.2e-07 PS=4.32e-06
mX6/X0/M3 N_VDD_X6/X0/M3_d N_STATE0_X6/X0/M3_g N_52_X6/X0/M3_s N_VDD_X6/X0/M2_b
+ P_18 L=1.8e-07 W=2.5e-06 AD=2.275e-12 AS=1.025e-12 PD=4.32e-06 PS=8.2e-07
mX6/X1/M0 N_S1_X6/X1/M0_d N_52_X6/X1/M0_g N_VSS_X6/X1/M0_s N_VSS_X0/X0/M0_b N_18
+ L=1.8e-07 W=1e-06 AD=9.1e-13 AS=9.1e-13 PD=2.82e-06 PS=2.82e-06
mX6/X1/M1 N_S1_X6/X1/M1_d N_52_X6/X1/M1_g N_VDD_X6/X1/M1_s N_VDD_X6/X1/M1_b P_18
+ L=1.8e-07 W=2.5e-06 AD=2.275e-12 AS=2.275e-12 PD=4.32e-06 PS=4.32e-06
mX7/X0/M0 N_X7/X0/6_X7/X0/M0_d N_28_X7/X0/M0_g N_VSS_X7/X0/M0_s N_VSS_X0/X0/M0_b
+ N_18 L=1.8e-07 W=1e-06 AD=4.1e-13 AS=9.1e-13 PD=8.2e-07 PS=2.82e-06
mX7/X0/M1 N_53_X7/X0/M1_d N_STATE1_X7/X0/M1_g N_X7/X0/6_X7/X0/M1_s
+ N_VSS_X0/X0/M0_b N_18 L=1.8e-07 W=1e-06 AD=9.1e-13 AS=4.1e-13 PD=2.82e-06
+ PS=8.2e-07
mX7/X0/M2 N_53_X7/X0/M2_d N_28_X7/X0/M2_g N_VDD_X7/X0/M2_s N_VDD_X7/X0/M2_b P_18
+ L=1.8e-07 W=2.5e-06 AD=1.025e-12 AS=2.275e-12 PD=8.2e-07 PS=4.32e-06
mX7/X0/M3 N_VDD_X7/X0/M3_d N_STATE1_X7/X0/M3_g N_53_X7/X0/M3_s N_VDD_X7/X0/M2_b
+ P_18 L=1.8e-07 W=2.5e-06 AD=2.275e-12 AS=1.025e-12 PD=4.32e-06 PS=8.2e-07
mX7/X1/M0 N_MO1_X7/X1/M0_d N_53_X7/X1/M0_g N_VSS_X7/X1/M0_s N_VSS_X0/X0/M0_b
+ N_18 L=1.8e-07 W=1e-06 AD=9.1e-13 AS=9.1e-13 PD=2.82e-06 PS=2.82e-06
mX7/X1/M1 N_MO1_X7/X1/M1_d N_53_X7/X1/M1_g N_VDD_X7/X1/M1_s N_VDD_X7/X1/M1_b
+ P_18 L=1.8e-07 W=2.5e-06 AD=2.275e-12 AS=2.275e-12 PD=4.32e-06 PS=4.32e-06
mX8/X0/M0 N_X8/X0/6_X8/X0/M0_d N_16_X8/X0/M0_g N_VSS_X8/X0/M0_s N_VSS_X0/X0/M0_b
+ N_18 L=1.8e-07 W=1e-06 AD=4.1e-13 AS=9.1e-13 PD=8.2e-07 PS=2.82e-06
mX8/X0/M1 N_54_X8/X0/M1_d N_POWER_X8/X0/M1_g N_X8/X0/6_X8/X0/M1_s
+ N_VSS_X0/X0/M0_b N_18 L=1.8e-07 W=1e-06 AD=9.1e-13 AS=4.1e-13 PD=2.82e-06
+ PS=8.2e-07
mX8/X0/M2 N_54_X8/X0/M2_d N_16_X8/X0/M2_g N_VDD_X8/X0/M2_s N_VDD_X8/X0/M2_b P_18
+ L=1.8e-07 W=2.5e-06 AD=1.025e-12 AS=2.275e-12 PD=8.2e-07 PS=4.32e-06
mX8/X0/M3 N_VDD_X8/X0/M3_d N_POWER_X8/X0/M3_g N_54_X8/X0/M3_s N_VDD_X8/X0/M2_b
+ P_18 L=1.8e-07 W=2.5e-06 AD=2.275e-12 AS=1.025e-12 PD=4.32e-06 PS=8.2e-07
mX8/X1/M0 N_10_X8/X1/M0_d N_54_X8/X1/M0_g N_VSS_X8/X1/M0_s N_VSS_X0/X0/M0_b N_18
+ L=1.8e-07 W=1e-06 AD=9.1e-13 AS=9.1e-13 PD=2.82e-06 PS=2.82e-06
mX8/X1/M1 N_10_X8/X1/M1_d N_54_X8/X1/M1_g N_VDD_X8/X1/M1_s N_VDD_X8/X1/M1_b P_18
+ L=1.8e-07 W=2.5e-06 AD=2.275e-12 AS=2.275e-12 PD=4.32e-06 PS=4.32e-06
mX9/X0/M0 N_X9/X0/6_X9/X0/M0_d N_26_X9/X0/M0_g N_VSS_X9/X0/M0_s N_VSS_X0/X0/M0_b
+ N_18 L=1.8e-07 W=1e-06 AD=4.1e-13 AS=9.1e-13 PD=8.2e-07 PS=2.82e-06
mX9/X0/M1 N_55_X9/X0/M1_d N_23_X9/X0/M1_g N_X9/X0/6_X9/X0/M1_s N_VSS_X0/X0/M0_b
+ N_18 L=1.8e-07 W=1e-06 AD=9.1e-13 AS=4.1e-13 PD=2.82e-06 PS=8.2e-07
mX9/X0/M2 N_55_X9/X0/M2_d N_26_X9/X0/M2_g N_VDD_X9/X0/M2_s N_VDD_X9/X0/M2_b P_18
+ L=1.8e-07 W=2.5e-06 AD=1.025e-12 AS=2.275e-12 PD=8.2e-07 PS=4.32e-06
mX9/X0/M3 N_VDD_X9/X0/M3_d N_23_X9/X0/M3_g N_55_X9/X0/M3_s N_VDD_X9/X0/M2_b P_18
+ L=1.8e-07 W=2.5e-06 AD=2.275e-12 AS=1.025e-12 PD=4.32e-06 PS=8.2e-07
mX9/X1/M0 N_S0_X9/X1/M0_d N_55_X9/X1/M0_g N_VSS_X9/X1/M0_s N_VSS_X0/X0/M0_b N_18
+ L=1.8e-07 W=1e-06 AD=9.1e-13 AS=9.1e-13 PD=2.82e-06 PS=2.82e-06
mX9/X1/M1 N_S0_X9/X1/M1_d N_55_X9/X1/M1_g N_VDD_X9/X1/M1_s N_VDD_X9/X1/M1_b P_18
+ L=1.8e-07 W=2.5e-06 AD=2.275e-12 AS=2.275e-12 PD=4.32e-06 PS=4.32e-06
mX10/X0/M0 N_X10/X0/6_X10/X0/M0_d N_32_X10/X0/M0_g N_VSS_X10/X0/M0_s
+ N_VSS_X0/X0/M0_b N_18 L=1.8e-07 W=1e-06 AD=4.1e-13 AS=9.1e-13 PD=8.2e-07
+ PS=2.82e-06
mX10/X0/M1 N_56_X10/X0/M1_d N_STATE1_X10/X0/M1_g N_X10/X0/6_X10/X0/M1_s
+ N_VSS_X0/X0/M0_b N_18 L=1.8e-07 W=1e-06 AD=9.1e-13 AS=4.1e-13 PD=2.82e-06
+ PS=8.2e-07
mX10/X0/M2 N_56_X10/X0/M2_d N_32_X10/X0/M2_g N_VDD_X10/X0/M2_s N_VDD_X10/X0/M2_b
+ P_18 L=1.8e-07 W=2.5e-06 AD=1.025e-12 AS=2.275e-12 PD=8.2e-07 PS=4.32e-06
mX10/X0/M3 N_VDD_X10/X0/M3_d N_STATE1_X10/X0/M3_g N_56_X10/X0/M3_s
+ N_VDD_X10/X0/M2_b P_18 L=1.8e-07 W=2.5e-06 AD=2.275e-12 AS=1.025e-12
+ PD=4.32e-06 PS=8.2e-07
mX10/X1/M0 N_MO2_X10/X1/M0_d N_56_X10/X1/M0_g N_VSS_X10/X1/M0_s N_VSS_X0/X0/M0_b
+ N_18 L=1.8e-07 W=1e-06 AD=9.1e-13 AS=9.1e-13 PD=2.82e-06 PS=2.82e-06
mX10/X1/M1 N_MO2_X10/X1/M1_d N_56_X10/X1/M1_g N_VDD_X10/X1/M1_s
+ N_VDD_X10/X1/M1_b P_18 L=1.8e-07 W=2.5e-06 AD=2.275e-12 AS=2.275e-12
+ PD=4.32e-06 PS=4.32e-06
mX11/X0/M0 N_X11/X0/6_X11/X0/M0_d N_36_X11/X0/M0_g N_VSS_X11/X0/M0_s
+ N_VSS_X0/X0/M0_b N_18 L=1.8e-07 W=1e-06 AD=4.1e-13 AS=9.1e-13 PD=8.2e-07
+ PS=2.82e-06
mX11/X0/M1 N_57_X11/X0/M1_d N_STATE1_X11/X0/M1_g N_X11/X0/6_X11/X0/M1_s
+ N_VSS_X0/X0/M0_b N_18 L=1.8e-07 W=1e-06 AD=9.1e-13 AS=4.1e-13 PD=2.82e-06
+ PS=8.2e-07
mX11/X0/M2 N_57_X11/X0/M2_d N_36_X11/X0/M2_g N_VDD_X11/X0/M2_s N_VDD_X11/X0/M2_b
+ P_18 L=1.8e-07 W=2.5e-06 AD=1.025e-12 AS=2.275e-12 PD=8.2e-07 PS=4.32e-06
mX11/X0/M3 N_VDD_X11/X0/M3_d N_STATE1_X11/X0/M3_g N_57_X11/X0/M3_s
+ N_VDD_X11/X0/M2_b P_18 L=1.8e-07 W=2.5e-06 AD=2.275e-12 AS=1.025e-12
+ PD=4.32e-06 PS=8.2e-07
mX11/X1/M0 N_MO3_X11/X1/M0_d N_57_X11/X1/M0_g N_VSS_X11/X1/M0_s N_VSS_X0/X0/M0_b
+ N_18 L=1.8e-07 W=1e-06 AD=9.1e-13 AS=9.1e-13 PD=2.82e-06 PS=2.82e-06
mX11/X1/M1 N_MO3_X11/X1/M1_d N_57_X11/X1/M1_g N_VDD_X11/X1/M1_s
+ N_VDD_X11/X1/M1_b P_18 L=1.8e-07 W=2.5e-06 AD=2.275e-12 AS=2.275e-12
+ PD=4.32e-06 PS=4.32e-06
mX12/M0 N_X12/6_X12/M0_d N_42_X12/M0_g N_VSS_X12/M0_s N_VSS_X0/X0/M0_b N_18
+ L=1.8e-07 W=1e-06 AD=4.1e-13 AS=9.1e-13 PD=8.2e-07 PS=2.82e-06
mX12/M1 N_VSS_X12/M1_d N_S2_X12/M1_g N_X12/6_X12/M1_s N_VSS_X0/X0/M0_b N_18
+ L=1.8e-07 W=1e-06 AD=9.1e-13 AS=4.1e-13 PD=2.82e-06 PS=8.2e-07
mX12/M2 N_X12/7_X12/M2_d N_42_X12/M2_g N_VDD_X12/M2_s N_VDD_X12/M2_b P_18
+ L=1.8e-07 W=2.5e-06 AD=1.025e-12 AS=2.275e-12 PD=8.2e-07 PS=4.32e-06
mX12/M3 N_X12/6_X12/M3_d N_S2_X12/M3_g N_X12/7_X12/M3_s N_VDD_X12/M2_b P_18
+ L=1.8e-07 W=2.5e-06 AD=2.275e-12 AS=1.025e-12 PD=4.32e-06 PS=8.2e-07
mX12/X4/M0 N_43_X12/X4/M0_d N_X12/6_X12/X4/M0_g N_VSS_X12/X4/M0_s
+ N_VSS_X0/X0/M0_b N_18 L=1.8e-07 W=1e-06 AD=9.1e-13 AS=9.1e-13 PD=2.82e-06
+ PS=2.82e-06
mX12/X4/M1 N_43_X12/X4/M1_d N_X12/6_X12/X4/M1_g N_VDD_X12/X4/M1_s
+ N_VDD_X12/X4/M1_b P_18 L=1.8e-07 W=2.5e-06 AD=2.275e-12 AS=2.275e-12
+ PD=4.32e-06 PS=4.32e-06
mX13/X0/X0/M0 N_X13/X0/7_X13/X0/X0/M0_d N_12_X13/X0/X0/M0_g N_VSS_X13/X0/X0/M0_s
+ N_VSS_X0/X0/M0_b N_18 L=1.8e-07 W=1e-06 AD=9.1e-13 AS=9.1e-13 PD=2.82e-06
+ PS=2.82e-06
mX13/X0/X0/M1 N_X13/X0/7_X13/X0/X0/M1_d N_12_X13/X0/X0/M1_g N_VDD_X13/X0/X0/M1_s
+ N_VDD_X13/X0/X0/M1_b P_18 L=1.8e-07 W=2.5e-06 AD=2.275e-12 AS=2.275e-12
+ PD=4.32e-06 PS=4.32e-06
mX13/X0/X1/M0 N_X13/X0/8_X13/X0/X1/M0_d N_INIT0_X13/X0/X1/M0_g
+ N_VSS_X13/X0/X1/M0_s N_VSS_X0/X0/M0_b N_18 L=1.8e-07 W=1e-06 AD=9.1e-13
+ AS=9.1e-13 PD=2.82e-06 PS=2.82e-06
mX13/X0/X1/M1 N_X13/X0/8_X13/X0/X1/M1_d N_INIT0_X13/X0/X1/M1_g
+ N_VDD_X13/X0/X1/M1_s N_VDD_X13/X0/X1/M1_b P_18 L=1.8e-07 W=2.5e-06
+ AD=2.275e-12 AS=2.275e-12 PD=4.32e-06 PS=4.32e-06
mX13/X0/X2/X0/M0 N_X13/X0/X2/X0/6_X13/X0/X2/X0/M0_d N_12_X13/X0/X2/X0/M0_g
+ N_VSS_X13/X0/X2/X0/M0_s N_VSS_X0/X0/M0_b N_18 L=1.8e-07 W=1e-06 AD=4.1e-13
+ AS=9.1e-13 PD=8.2e-07 PS=2.82e-06
mX13/X0/X2/X0/M1 N_X13/X0/9_X13/X0/X2/X0/M1_d N_INIT0_X13/X0/X2/X0/M1_g
+ N_X13/X0/X2/X0/6_X13/X0/X2/X0/M1_s N_VSS_X0/X0/M0_b N_18 L=1.8e-07 W=1e-06
+ AD=9.1e-13 AS=4.1e-13 PD=2.82e-06 PS=8.2e-07
mX13/X0/X2/X0/M2 N_X13/X0/9_X13/X0/X2/X0/M2_d N_12_X13/X0/X2/X0/M2_g
+ N_VDD_X13/X0/X2/X0/M2_s N_VDD_X13/X0/X2/X0/M2_b P_18 L=1.8e-07 W=2.5e-06
+ AD=1.025e-12 AS=2.275e-12 PD=8.2e-07 PS=4.32e-06
mX13/X0/X2/X0/M3 N_VDD_X13/X0/X2/X0/M3_d N_INIT0_X13/X0/X2/X0/M3_g
+ N_X13/X0/9_X13/X0/X2/X0/M3_s N_VDD_X13/X0/X2/X0/M2_b P_18 L=1.8e-07 W=2.5e-06
+ AD=2.275e-12 AS=1.025e-12 PD=4.32e-06 PS=8.2e-07
mX13/X0/X2/X1/M0 N_X13/8_X13/X0/X2/X1/M0_d N_X13/X0/9_X13/X0/X2/X1/M0_g
+ N_VSS_X13/X0/X2/X1/M0_s N_VSS_X0/X0/M0_b N_18 L=1.8e-07 W=1e-06 AD=9.1e-13
+ AS=9.1e-13 PD=2.82e-06 PS=2.82e-06
mX13/X0/X2/X1/M1 N_X13/8_X13/X0/X2/X1/M1_d N_X13/X0/9_X13/X0/X2/X1/M1_g
+ N_VDD_X13/X0/X2/X1/M1_s N_VDD_X13/X0/X2/X1/M1_b P_18 L=1.8e-07 W=2.5e-06
+ AD=2.275e-12 AS=2.275e-12 PD=4.32e-06 PS=4.32e-06
mX13/X0/X3/M0 N_X13/10_X13/X0/X3/M0_d N_INIT0_X13/X0/X3/M0_g
+ N_X13/X0/7_X13/X0/X3/M0_s N_VSS_X0/X0/M0_b N_18 L=1.8e-07 W=1e-06 AD=9.1e-13
+ AS=9.1e-13 PD=2.82e-06 PS=2.82e-06
mX13/X0/X3/M1 N_X13/10_X13/X0/X3/M1_d N_X13/X0/8_X13/X0/X3/M1_g
+ N_X13/X0/7_X13/X0/X3/M1_s N_VDD_X13/X0/X3/M1_b P_18 L=1.8e-07 W=2.5e-06
+ AD=2.275e-12 AS=2.275e-12 PD=4.32e-06 PS=4.32e-06
mX13/X0/X4/M0 N_X13/10_X13/X0/X4/M0_d N_X13/X0/8_X13/X0/X4/M0_g
+ N_12_X13/X0/X4/M0_s N_VSS_X0/X0/M0_b N_18 L=1.8e-07 W=1e-06 AD=9.1e-13
+ AS=9.1e-13 PD=2.82e-06 PS=2.82e-06
mX13/X0/X4/M1 N_X13/10_X13/X0/X4/M1_d N_INIT0_X13/X0/X4/M1_g N_12_X13/X0/X4/M1_s
+ N_VDD_X13/X0/X4/M1_b P_18 L=1.8e-07 W=2.5e-06 AD=2.275e-12 AS=2.275e-12
+ PD=4.32e-06 PS=4.32e-06
mX13/X1/X0/M0 N_X13/X1/7_X13/X1/X0/M0_d N_X13/10_X13/X1/X0/M0_g
+ N_VSS_X13/X1/X0/M0_s N_VSS_X0/X0/M0_b N_18 L=1.8e-07 W=1e-06 AD=9.1e-13
+ AS=9.1e-13 PD=2.82e-06 PS=2.82e-06
mX13/X1/X0/M1 N_X13/X1/7_X13/X1/X0/M1_d N_X13/10_X13/X1/X0/M1_g
+ N_VDD_X13/X1/X0/M1_s N_VDD_X13/X1/X0/M1_b P_18 L=1.8e-07 W=2.5e-06
+ AD=2.275e-12 AS=2.275e-12 PD=4.32e-06 PS=4.32e-06
mX13/X1/X1/M0 N_X13/X1/8_X13/X1/X1/M0_d N_VSS_X13/X1/X1/M0_g
+ N_VSS_X13/X1/X1/M0_s N_VSS_X0/X0/M0_b N_18 L=1.8e-07 W=1e-06 AD=9.1e-13
+ AS=9.1e-13 PD=2.82e-06 PS=2.82e-06
mX13/X1/X1/M1 N_X13/X1/8_X13/X1/X1/M1_d N_VSS_X13/X1/X1/M1_g
+ N_VDD_X13/X1/X1/M1_s N_VDD_X13/X1/X1/M1_b P_18 L=1.8e-07 W=2.5e-06
+ AD=2.275e-12 AS=2.275e-12 PD=4.32e-06 PS=4.32e-06
mX13/X1/X2/X0/M0 N_X13/X1/X2/X0/6_X13/X1/X2/X0/M0_d N_X13/10_X13/X1/X2/X0/M0_g
+ N_VSS_X13/X1/X2/X0/M0_s N_VSS_X0/X0/M0_b N_18 L=1.8e-07 W=1e-06 AD=4.1e-13
+ AS=9.1e-13 PD=8.2e-07 PS=2.82e-06
mX13/X1/X2/X0/M1 N_X13/X1/9_X13/X1/X2/X0/M1_d N_VSS_X13/X1/X2/X0/M1_g
+ N_X13/X1/X2/X0/6_X13/X1/X2/X0/M1_s N_VSS_X0/X0/M0_b N_18 L=1.8e-07 W=1e-06
+ AD=9.1e-13 AS=4.1e-13 PD=2.82e-06 PS=8.2e-07
mX13/X1/X2/X0/M2 N_X13/X1/9_X13/X1/X2/X0/M2_d N_X13/10_X13/X1/X2/X0/M2_g
+ N_VDD_X13/X1/X2/X0/M2_s N_VDD_X13/X1/X2/X0/M2_b P_18 L=1.8e-07 W=2.5e-06
+ AD=1.025e-12 AS=2.275e-12 PD=8.2e-07 PS=4.32e-06
mX13/X1/X2/X0/M3 N_VDD_X13/X1/X2/X0/M3_d N_VSS_X13/X1/X2/X0/M3_g
+ N_X13/X1/9_X13/X1/X2/X0/M3_s N_VDD_X13/X1/X2/X0/M2_b P_18 L=1.8e-07 W=2.5e-06
+ AD=2.275e-12 AS=1.025e-12 PD=4.32e-06 PS=8.2e-07
mX13/X1/X2/X1/M0 N_X13/9_X13/X1/X2/X1/M0_d N_X13/X1/9_X13/X1/X2/X1/M0_g
+ N_VSS_X13/X1/X2/X1/M0_s N_VSS_X0/X0/M0_b N_18 L=1.8e-07 W=1e-06 AD=9.1e-13
+ AS=9.1e-13 PD=2.82e-06 PS=2.82e-06
mX13/X1/X2/X1/M1 N_X13/9_X13/X1/X2/X1/M1_d N_X13/X1/9_X13/X1/X2/X1/M1_g
+ N_VDD_X13/X1/X2/X1/M1_s N_VDD_X13/X1/X2/X1/M1_b P_18 L=1.8e-07 W=2.5e-06
+ AD=2.275e-12 AS=2.275e-12 PD=4.32e-06 PS=4.32e-06
mX13/X1/X3/M0 N_2_X13/X1/X3/M0_d N_VSS_X13/X1/X3/M0_g N_X13/X1/7_X13/X1/X3/M0_s
+ N_VSS_X0/X0/M0_b N_18 L=1.8e-07 W=1e-06 AD=9.1e-13 AS=9.1e-13 PD=2.82e-06
+ PS=2.82e-06
mX13/X1/X3/M1 N_2_X13/X1/X3/M1_d N_X13/X1/8_X13/X1/X3/M1_g
+ N_X13/X1/7_X13/X1/X3/M1_s N_VDD_X13/X1/X3/M1_b P_18 L=1.8e-07 W=2.5e-06
+ AD=2.275e-12 AS=2.275e-12 PD=4.32e-06 PS=4.32e-06
mX13/X1/X4/M0 N_2_X13/X1/X4/M0_d N_X13/X1/8_X13/X1/X4/M0_g
+ N_X13/10_X13/X1/X4/M0_s N_VSS_X0/X0/M0_b N_18 L=1.8e-07 W=1e-06 AD=9.1e-13
+ AS=9.1e-13 PD=2.82e-06 PS=2.82e-06
mX13/X1/X4/M1 N_2_X13/X1/X4/M1_d N_VSS_X13/X1/X4/M1_g N_X13/10_X13/X1/X4/M1_s
+ N_VDD_X13/X1/X4/M1_b P_18 L=1.8e-07 W=2.5e-06 AD=2.275e-12 AS=2.275e-12
+ PD=4.32e-06 PS=4.32e-06
mX13/X2/M0 N_X13/X2/6_X13/X2/M0_d N_X13/9_X13/X2/M0_g N_VSS_X13/X2/M0_s
+ N_VSS_X0/X0/M0_b N_18 L=1.8e-07 W=1e-06 AD=4.1e-13 AS=9.1e-13 PD=8.2e-07
+ PS=2.82e-06
mX13/X2/M1 N_VSS_X13/X2/M1_d N_X13/8_X13/X2/M1_g N_X13/X2/6_X13/X2/M1_s
+ N_VSS_X0/X0/M0_b N_18 L=1.8e-07 W=1e-06 AD=9.1e-13 AS=4.1e-13 PD=2.82e-06
+ PS=8.2e-07
mX13/X2/M2 N_X13/X2/7_X13/X2/M2_d N_X13/9_X13/X2/M2_g N_VDD_X13/X2/M2_s
+ N_VDD_X13/X2/M2_b P_18 L=1.8e-07 W=2.5e-06 AD=1.025e-12 AS=2.275e-12
+ PD=8.2e-07 PS=4.32e-06
mX13/X2/M3 N_X13/X2/6_X13/X2/M3_d N_X13/8_X13/X2/M3_g N_X13/X2/7_X13/X2/M3_s
+ N_VDD_X13/X2/M2_b P_18 L=1.8e-07 W=2.5e-06 AD=2.275e-12 AS=1.025e-12
+ PD=4.32e-06 PS=8.2e-07
mX13/X2/X4/M0 N_41_X13/X2/X4/M0_d N_X13/X2/6_X13/X2/X4/M0_g N_VSS_X13/X2/X4/M0_s
+ N_VSS_X0/X0/M0_b N_18 L=1.8e-07 W=1e-06 AD=9.1e-13 AS=9.1e-13 PD=2.82e-06
+ PS=2.82e-06
mX13/X2/X4/M1 N_41_X13/X2/X4/M1_d N_X13/X2/6_X13/X2/X4/M1_g N_VDD_X13/X2/X4/M1_s
+ N_VDD_X13/X2/X4/M1_b P_18 L=1.8e-07 W=2.5e-06 AD=2.275e-12 AS=2.275e-12
+ PD=4.32e-06 PS=4.32e-06
mX14/X0/X0/M0 N_X14/X0/7_X14/X0/X0/M0_d N_24_X14/X0/X0/M0_g N_VSS_X14/X0/X0/M0_s
+ N_VSS_X0/X0/M0_b N_18 L=1.8e-07 W=1e-06 AD=9.1e-13 AS=9.1e-13 PD=2.82e-06
+ PS=2.82e-06
mX14/X0/X0/M1 N_X14/X0/7_X14/X0/X0/M1_d N_24_X14/X0/X0/M1_g N_VDD_X14/X0/X0/M1_s
+ N_VDD_X14/X0/X0/M1_b P_18 L=1.8e-07 W=2.5e-06 AD=2.275e-12 AS=2.275e-12
+ PD=4.32e-06 PS=4.32e-06
mX14/X0/X1/M0 N_X14/X0/8_X14/X0/X1/M0_d N_INIT1_X14/X0/X1/M0_g
+ N_VSS_X14/X0/X1/M0_s N_VSS_X0/X0/M0_b N_18 L=1.8e-07 W=1e-06 AD=9.1e-13
+ AS=9.1e-13 PD=2.82e-06 PS=2.82e-06
mX14/X0/X1/M1 N_X14/X0/8_X14/X0/X1/M1_d N_INIT1_X14/X0/X1/M1_g
+ N_VDD_X14/X0/X1/M1_s N_VDD_X14/X0/X1/M1_b P_18 L=1.8e-07 W=2.5e-06
+ AD=2.275e-12 AS=2.275e-12 PD=4.32e-06 PS=4.32e-06
mX14/X0/X2/X0/M0 N_X14/X0/X2/X0/6_X14/X0/X2/X0/M0_d N_24_X14/X0/X2/X0/M0_g
+ N_VSS_X14/X0/X2/X0/M0_s N_VSS_X0/X0/M0_b N_18 L=1.8e-07 W=1e-06 AD=4.1e-13
+ AS=9.1e-13 PD=8.2e-07 PS=2.82e-06
mX14/X0/X2/X0/M1 N_X14/X0/9_X14/X0/X2/X0/M1_d N_INIT1_X14/X0/X2/X0/M1_g
+ N_X14/X0/X2/X0/6_X14/X0/X2/X0/M1_s N_VSS_X0/X0/M0_b N_18 L=1.8e-07 W=1e-06
+ AD=9.1e-13 AS=4.1e-13 PD=2.82e-06 PS=8.2e-07
mX14/X0/X2/X0/M2 N_X14/X0/9_X14/X0/X2/X0/M2_d N_24_X14/X0/X2/X0/M2_g
+ N_VDD_X14/X0/X2/X0/M2_s N_VDD_X14/X0/X2/X0/M2_b P_18 L=1.8e-07 W=2.5e-06
+ AD=1.025e-12 AS=2.275e-12 PD=8.2e-07 PS=4.32e-06
mX14/X0/X2/X0/M3 N_VDD_X14/X0/X2/X0/M3_d N_INIT1_X14/X0/X2/X0/M3_g
+ N_X14/X0/9_X14/X0/X2/X0/M3_s N_VDD_X14/X0/X2/X0/M2_b P_18 L=1.8e-07 W=2.5e-06
+ AD=2.275e-12 AS=1.025e-12 PD=4.32e-06 PS=8.2e-07
mX14/X0/X2/X1/M0 N_X14/8_X14/X0/X2/X1/M0_d N_X14/X0/9_X14/X0/X2/X1/M0_g
+ N_VSS_X14/X0/X2/X1/M0_s N_VSS_X0/X0/M0_b N_18 L=1.8e-07 W=1e-06 AD=9.1e-13
+ AS=9.1e-13 PD=2.82e-06 PS=2.82e-06
mX14/X0/X2/X1/M1 N_X14/8_X14/X0/X2/X1/M1_d N_X14/X0/9_X14/X0/X2/X1/M1_g
+ N_VDD_X14/X0/X2/X1/M1_s N_VDD_X14/X0/X2/X1/M1_b P_18 L=1.8e-07 W=2.5e-06
+ AD=2.275e-12 AS=2.275e-12 PD=4.32e-06 PS=4.32e-06
mX14/X0/X3/M0 N_X14/10_X14/X0/X3/M0_d N_INIT1_X14/X0/X3/M0_g
+ N_X14/X0/7_X14/X0/X3/M0_s N_VSS_X0/X0/M0_b N_18 L=1.8e-07 W=1e-06 AD=9.1e-13
+ AS=9.1e-13 PD=2.82e-06 PS=2.82e-06
mX14/X0/X3/M1 N_X14/10_X14/X0/X3/M1_d N_X14/X0/8_X14/X0/X3/M1_g
+ N_X14/X0/7_X14/X0/X3/M1_s N_VDD_X14/X0/X3/M1_b P_18 L=1.8e-07 W=2.5e-06
+ AD=2.275e-12 AS=2.275e-12 PD=4.32e-06 PS=4.32e-06
mX14/X0/X4/M0 N_X14/10_X14/X0/X4/M0_d N_X14/X0/8_X14/X0/X4/M0_g
+ N_24_X14/X0/X4/M0_s N_VSS_X0/X0/M0_b N_18 L=1.8e-07 W=1e-06 AD=9.1e-13
+ AS=9.1e-13 PD=2.82e-06 PS=2.82e-06
mX14/X0/X4/M1 N_X14/10_X14/X0/X4/M1_d N_INIT1_X14/X0/X4/M1_g N_24_X14/X0/X4/M1_s
+ N_VDD_X14/X0/X4/M1_b P_18 L=1.8e-07 W=2.5e-06 AD=2.275e-12 AS=2.275e-12
+ PD=4.32e-06 PS=4.32e-06
mX14/X1/X0/M0 N_X14/X1/7_X14/X1/X0/M0_d N_X14/10_X14/X1/X0/M0_g
+ N_VSS_X14/X1/X0/M0_s N_VSS_X0/X0/M0_b N_18 L=1.8e-07 W=1e-06 AD=9.1e-13
+ AS=9.1e-13 PD=2.82e-06 PS=2.82e-06
mX14/X1/X0/M1 N_X14/X1/7_X14/X1/X0/M1_d N_X14/10_X14/X1/X0/M1_g
+ N_VDD_X14/X1/X0/M1_s N_VDD_X14/X1/X0/M1_b P_18 L=1.8e-07 W=2.5e-06
+ AD=2.275e-12 AS=2.275e-12 PD=4.32e-06 PS=4.32e-06
mX14/X1/X1/M0 N_X14/X1/8_X14/X1/X1/M0_d N_41_X14/X1/X1/M0_g N_VSS_X14/X1/X1/M0_s
+ N_VSS_X0/X0/M0_b N_18 L=1.8e-07 W=1e-06 AD=9.1e-13 AS=9.1e-13 PD=2.82e-06
+ PS=2.82e-06
mX14/X1/X1/M1 N_X14/X1/8_X14/X1/X1/M1_d N_41_X14/X1/X1/M1_g N_VDD_X14/X1/X1/M1_s
+ N_VDD_X14/X1/X1/M1_b P_18 L=1.8e-07 W=2.5e-06 AD=2.275e-12 AS=2.275e-12
+ PD=4.32e-06 PS=4.32e-06
mX14/X1/X2/X0/M0 N_X14/X1/X2/X0/6_X14/X1/X2/X0/M0_d N_X14/10_X14/X1/X2/X0/M0_g
+ N_VSS_X14/X1/X2/X0/M0_s N_VSS_X0/X0/M0_b N_18 L=1.8e-07 W=1e-06 AD=4.1e-13
+ AS=9.1e-13 PD=8.2e-07 PS=2.82e-06
mX14/X1/X2/X0/M1 N_X14/X1/9_X14/X1/X2/X0/M1_d N_41_X14/X1/X2/X0/M1_g
+ N_X14/X1/X2/X0/6_X14/X1/X2/X0/M1_s N_VSS_X0/X0/M0_b N_18 L=1.8e-07 W=1e-06
+ AD=9.1e-13 AS=4.1e-13 PD=2.82e-06 PS=8.2e-07
mX14/X1/X2/X0/M2 N_X14/X1/9_X14/X1/X2/X0/M2_d N_X14/10_X14/X1/X2/X0/M2_g
+ N_VDD_X14/X1/X2/X0/M2_s N_VDD_X14/X1/X2/X0/M2_b P_18 L=1.8e-07 W=2.5e-06
+ AD=1.025e-12 AS=2.275e-12 PD=8.2e-07 PS=4.32e-06
mX14/X1/X2/X0/M3 N_VDD_X14/X1/X2/X0/M3_d N_41_X14/X1/X2/X0/M3_g
+ N_X14/X1/9_X14/X1/X2/X0/M3_s N_VDD_X14/X1/X2/X0/M2_b P_18 L=1.8e-07 W=2.5e-06
+ AD=2.275e-12 AS=1.025e-12 PD=4.32e-06 PS=8.2e-07
mX14/X1/X2/X1/M0 N_X14/9_X14/X1/X2/X1/M0_d N_X14/X1/9_X14/X1/X2/X1/M0_g
+ N_VSS_X14/X1/X2/X1/M0_s N_VSS_X0/X0/M0_b N_18 L=1.8e-07 W=1e-06 AD=9.1e-13
+ AS=9.1e-13 PD=2.82e-06 PS=2.82e-06
mX14/X1/X2/X1/M1 N_X14/9_X14/X1/X2/X1/M1_d N_X14/X1/9_X14/X1/X2/X1/M1_g
+ N_VDD_X14/X1/X2/X1/M1_s N_VDD_X14/X1/X2/X1/M1_b P_18 L=1.8e-07 W=2.5e-06
+ AD=2.275e-12 AS=2.275e-12 PD=4.32e-06 PS=4.32e-06
mX14/X1/X3/M0 N_4_X14/X1/X3/M0_d N_41_X14/X1/X3/M0_g N_X14/X1/7_X14/X1/X3/M0_s
+ N_VSS_X0/X0/M0_b N_18 L=1.8e-07 W=1e-06 AD=9.1e-13 AS=9.1e-13 PD=2.82e-06
+ PS=2.82e-06
mX14/X1/X3/M1 N_4_X14/X1/X3/M1_d N_X14/X1/8_X14/X1/X3/M1_g
+ N_X14/X1/7_X14/X1/X3/M1_s N_VDD_X14/X1/X3/M1_b P_18 L=1.8e-07 W=2.5e-06
+ AD=2.275e-12 AS=2.275e-12 PD=4.32e-06 PS=4.32e-06
mX14/X1/X4/M0 N_4_X14/X1/X4/M0_d N_X14/X1/8_X14/X1/X4/M0_g
+ N_X14/10_X14/X1/X4/M0_s N_VSS_X0/X0/M0_b N_18 L=1.8e-07 W=1e-06 AD=9.1e-13
+ AS=9.1e-13 PD=2.82e-06 PS=2.82e-06
mX14/X1/X4/M1 N_4_X14/X1/X4/M1_d N_41_X14/X1/X4/M1_g N_X14/10_X14/X1/X4/M1_s
+ N_VDD_X14/X1/X4/M1_b P_18 L=1.8e-07 W=2.5e-06 AD=2.275e-12 AS=2.275e-12
+ PD=4.32e-06 PS=4.32e-06
mX14/X2/M0 N_X14/X2/6_X14/X2/M0_d N_X14/9_X14/X2/M0_g N_VSS_X14/X2/M0_s
+ N_VSS_X0/X0/M0_b N_18 L=1.8e-07 W=1e-06 AD=4.1e-13 AS=9.1e-13 PD=8.2e-07
+ PS=2.82e-06
mX14/X2/M1 N_VSS_X14/X2/M1_d N_X14/8_X14/X2/M1_g N_X14/X2/6_X14/X2/M1_s
+ N_VSS_X0/X0/M0_b N_18 L=1.8e-07 W=1e-06 AD=9.1e-13 AS=4.1e-13 PD=2.82e-06
+ PS=8.2e-07
mX14/X2/M2 N_X14/X2/7_X14/X2/M2_d N_X14/9_X14/X2/M2_g N_VDD_X14/X2/M2_s
+ N_VDD_X14/X2/M2_b P_18 L=1.8e-07 W=2.5e-06 AD=1.025e-12 AS=2.275e-12
+ PD=8.2e-07 PS=4.32e-06
mX14/X2/M3 N_X14/X2/6_X14/X2/M3_d N_X14/8_X14/X2/M3_g N_X14/X2/7_X14/X2/M3_s
+ N_VDD_X14/X2/M2_b P_18 L=1.8e-07 W=2.5e-06 AD=2.275e-12 AS=1.025e-12
+ PD=4.32e-06 PS=8.2e-07
mX14/X2/X4/M0 N_44_X14/X2/X4/M0_d N_X14/X2/6_X14/X2/X4/M0_g N_VSS_X14/X2/X4/M0_s
+ N_VSS_X0/X0/M0_b N_18 L=1.8e-07 W=1e-06 AD=9.1e-13 AS=9.1e-13 PD=2.82e-06
+ PS=2.82e-06
mX14/X2/X4/M1 N_44_X14/X2/X4/M1_d N_X14/X2/6_X14/X2/X4/M1_g N_VDD_X14/X2/X4/M1_s
+ N_VDD_X14/X2/X4/M1_b P_18 L=1.8e-07 W=2.5e-06 AD=2.275e-12 AS=2.275e-12
+ PD=4.32e-06 PS=4.32e-06
mX15/X0/X0/M0 N_X15/X0/7_X15/X0/X0/M0_d N_31_X15/X0/X0/M0_g N_VSS_X15/X0/X0/M0_s
+ N_VSS_X0/X0/M0_b N_18 L=1.8e-07 W=1e-06 AD=9.1e-13 AS=9.1e-13 PD=2.82e-06
+ PS=2.82e-06
mX15/X0/X0/M1 N_X15/X0/7_X15/X0/X0/M1_d N_31_X15/X0/X0/M1_g N_VDD_X15/X0/X0/M1_s
+ N_VDD_X15/X0/X0/M1_b P_18 L=1.8e-07 W=2.5e-06 AD=2.275e-12 AS=2.275e-12
+ PD=4.32e-06 PS=4.32e-06
mX15/X0/X1/M0 N_X15/X0/8_X15/X0/X1/M0_d N_INIT2_X15/X0/X1/M0_g
+ N_VSS_X15/X0/X1/M0_s N_VSS_X0/X0/M0_b N_18 L=1.8e-07 W=1e-06 AD=9.1e-13
+ AS=9.1e-13 PD=2.82e-06 PS=2.82e-06
mX15/X0/X1/M1 N_X15/X0/8_X15/X0/X1/M1_d N_INIT2_X15/X0/X1/M1_g
+ N_VDD_X15/X0/X1/M1_s N_VDD_X15/X0/X1/M1_b P_18 L=1.8e-07 W=2.5e-06
+ AD=2.275e-12 AS=2.275e-12 PD=4.32e-06 PS=4.32e-06
mX15/X0/X2/X0/M0 N_X15/X0/X2/X0/6_X15/X0/X2/X0/M0_d N_31_X15/X0/X2/X0/M0_g
+ N_VSS_X15/X0/X2/X0/M0_s N_VSS_X0/X0/M0_b N_18 L=1.8e-07 W=1e-06 AD=4.1e-13
+ AS=9.1e-13 PD=8.2e-07 PS=2.82e-06
mX15/X0/X2/X0/M1 N_X15/X0/9_X15/X0/X2/X0/M1_d N_INIT2_X15/X0/X2/X0/M1_g
+ N_X15/X0/X2/X0/6_X15/X0/X2/X0/M1_s N_VSS_X0/X0/M0_b N_18 L=1.8e-07 W=1e-06
+ AD=9.1e-13 AS=4.1e-13 PD=2.82e-06 PS=8.2e-07
mX15/X0/X2/X0/M2 N_X15/X0/9_X15/X0/X2/X0/M2_d N_31_X15/X0/X2/X0/M2_g
+ N_VDD_X15/X0/X2/X0/M2_s N_VDD_X15/X0/X2/X0/M2_b P_18 L=1.8e-07 W=2.5e-06
+ AD=1.025e-12 AS=2.275e-12 PD=8.2e-07 PS=4.32e-06
mX15/X0/X2/X0/M3 N_VDD_X15/X0/X2/X0/M3_d N_INIT2_X15/X0/X2/X0/M3_g
+ N_X15/X0/9_X15/X0/X2/X0/M3_s N_VDD_X15/X0/X2/X0/M2_b P_18 L=1.8e-07 W=2.5e-06
+ AD=2.275e-12 AS=1.025e-12 PD=4.32e-06 PS=8.2e-07
mX15/X0/X2/X1/M0 N_X15/8_X15/X0/X2/X1/M0_d N_X15/X0/9_X15/X0/X2/X1/M0_g
+ N_VSS_X15/X0/X2/X1/M0_s N_VSS_X0/X0/M0_b N_18 L=1.8e-07 W=1e-06 AD=9.1e-13
+ AS=9.1e-13 PD=2.82e-06 PS=2.82e-06
mX15/X0/X2/X1/M1 N_X15/8_X15/X0/X2/X1/M1_d N_X15/X0/9_X15/X0/X2/X1/M1_g
+ N_VDD_X15/X0/X2/X1/M1_s N_VDD_X15/X0/X2/X1/M1_b P_18 L=1.8e-07 W=2.5e-06
+ AD=2.275e-12 AS=2.275e-12 PD=4.32e-06 PS=4.32e-06
mX15/X0/X3/M0 N_X15/10_X15/X0/X3/M0_d N_INIT2_X15/X0/X3/M0_g
+ N_X15/X0/7_X15/X0/X3/M0_s N_VSS_X0/X0/M0_b N_18 L=1.8e-07 W=1e-06 AD=9.1e-13
+ AS=9.1e-13 PD=2.82e-06 PS=2.82e-06
mX15/X0/X3/M1 N_X15/10_X15/X0/X3/M1_d N_X15/X0/8_X15/X0/X3/M1_g
+ N_X15/X0/7_X15/X0/X3/M1_s N_VDD_X15/X0/X3/M1_b P_18 L=1.8e-07 W=2.5e-06
+ AD=2.275e-12 AS=2.275e-12 PD=4.32e-06 PS=4.32e-06
mX15/X0/X4/M0 N_X15/10_X15/X0/X4/M0_d N_X15/X0/8_X15/X0/X4/M0_g
+ N_31_X15/X0/X4/M0_s N_VSS_X0/X0/M0_b N_18 L=1.8e-07 W=1e-06 AD=9.1e-13
+ AS=9.1e-13 PD=2.82e-06 PS=2.82e-06
mX15/X0/X4/M1 N_X15/10_X15/X0/X4/M1_d N_INIT2_X15/X0/X4/M1_g N_31_X15/X0/X4/M1_s
+ N_VDD_X15/X0/X4/M1_b P_18 L=1.8e-07 W=2.5e-06 AD=2.275e-12 AS=2.275e-12
+ PD=4.32e-06 PS=4.32e-06
mX15/X1/X0/M0 N_X15/X1/7_X15/X1/X0/M0_d N_X15/10_X15/X1/X0/M0_g
+ N_VSS_X15/X1/X0/M0_s N_VSS_X0/X0/M0_b N_18 L=1.8e-07 W=1e-06 AD=9.1e-13
+ AS=9.1e-13 PD=2.82e-06 PS=2.82e-06
mX15/X1/X0/M1 N_X15/X1/7_X15/X1/X0/M1_d N_X15/10_X15/X1/X0/M1_g
+ N_VDD_X15/X1/X0/M1_s N_VDD_X15/X1/X0/M1_b P_18 L=1.8e-07 W=2.5e-06
+ AD=2.275e-12 AS=2.275e-12 PD=4.32e-06 PS=4.32e-06
mX15/X1/X1/M0 N_X15/X1/8_X15/X1/X1/M0_d N_44_X15/X1/X1/M0_g N_VSS_X15/X1/X1/M0_s
+ N_VSS_X0/X0/M0_b N_18 L=1.8e-07 W=1e-06 AD=9.1e-13 AS=9.1e-13 PD=2.82e-06
+ PS=2.82e-06
mX15/X1/X1/M1 N_X15/X1/8_X15/X1/X1/M1_d N_44_X15/X1/X1/M1_g N_VDD_X15/X1/X1/M1_s
+ N_VDD_X15/X1/X1/M1_b P_18 L=1.8e-07 W=2.5e-06 AD=2.275e-12 AS=2.275e-12
+ PD=4.32e-06 PS=4.32e-06
mX15/X1/X2/X0/M0 N_X15/X1/X2/X0/6_X15/X1/X2/X0/M0_d N_X15/10_X15/X1/X2/X0/M0_g
+ N_VSS_X15/X1/X2/X0/M0_s N_VSS_X0/X0/M0_b N_18 L=1.8e-07 W=1e-06 AD=4.1e-13
+ AS=9.1e-13 PD=8.2e-07 PS=2.82e-06
mX15/X1/X2/X0/M1 N_X15/X1/9_X15/X1/X2/X0/M1_d N_44_X15/X1/X2/X0/M1_g
+ N_X15/X1/X2/X0/6_X15/X1/X2/X0/M1_s N_VSS_X0/X0/M0_b N_18 L=1.8e-07 W=1e-06
+ AD=9.1e-13 AS=4.1e-13 PD=2.82e-06 PS=8.2e-07
mX15/X1/X2/X0/M2 N_X15/X1/9_X15/X1/X2/X0/M2_d N_X15/10_X15/X1/X2/X0/M2_g
+ N_VDD_X15/X1/X2/X0/M2_s N_VDD_X15/X1/X2/X0/M2_b P_18 L=1.8e-07 W=2.5e-06
+ AD=1.025e-12 AS=2.275e-12 PD=8.2e-07 PS=4.32e-06
mX15/X1/X2/X0/M3 N_VDD_X15/X1/X2/X0/M3_d N_44_X15/X1/X2/X0/M3_g
+ N_X15/X1/9_X15/X1/X2/X0/M3_s N_VDD_X15/X1/X2/X0/M2_b P_18 L=1.8e-07 W=2.5e-06
+ AD=2.275e-12 AS=1.025e-12 PD=4.32e-06 PS=8.2e-07
mX15/X1/X2/X1/M0 N_X15/9_X15/X1/X2/X1/M0_d N_X15/X1/9_X15/X1/X2/X1/M0_g
+ N_VSS_X15/X1/X2/X1/M0_s N_VSS_X0/X0/M0_b N_18 L=1.8e-07 W=1e-06 AD=9.1e-13
+ AS=9.1e-13 PD=2.82e-06 PS=2.82e-06
mX15/X1/X2/X1/M1 N_X15/9_X15/X1/X2/X1/M1_d N_X15/X1/9_X15/X1/X2/X1/M1_g
+ N_VDD_X15/X1/X2/X1/M1_s N_VDD_X15/X1/X2/X1/M1_b P_18 L=1.8e-07 W=2.5e-06
+ AD=2.275e-12 AS=2.275e-12 PD=4.32e-06 PS=4.32e-06
mX15/X1/X3/M0 N_6_X15/X1/X3/M0_d N_44_X15/X1/X3/M0_g N_X15/X1/7_X15/X1/X3/M0_s
+ N_VSS_X0/X0/M0_b N_18 L=1.8e-07 W=1e-06 AD=9.1e-13 AS=9.1e-13 PD=2.82e-06
+ PS=2.82e-06
mX15/X1/X3/M1 N_6_X15/X1/X3/M1_d N_X15/X1/8_X15/X1/X3/M1_g
+ N_X15/X1/7_X15/X1/X3/M1_s N_VDD_X15/X1/X3/M1_b P_18 L=1.8e-07 W=2.5e-06
+ AD=2.275e-12 AS=2.275e-12 PD=4.32e-06 PS=4.32e-06
mX15/X1/X4/M0 N_6_X15/X1/X4/M0_d N_X15/X1/8_X15/X1/X4/M0_g
+ N_X15/10_X15/X1/X4/M0_s N_VSS_X0/X0/M0_b N_18 L=1.8e-07 W=1e-06 AD=9.1e-13
+ AS=9.1e-13 PD=2.82e-06 PS=2.82e-06
mX15/X1/X4/M1 N_6_X15/X1/X4/M1_d N_44_X15/X1/X4/M1_g N_X15/10_X15/X1/X4/M1_s
+ N_VDD_X15/X1/X4/M1_b P_18 L=1.8e-07 W=2.5e-06 AD=2.275e-12 AS=2.275e-12